<?xml version="1.0" encoding="UTF-8"?>

<!-- generated on 2025-12-13 23:30:52 by Eclipse SUMO netconvert Version 1.20.0
<configuration xmlns:xsi="http://www.w3.org/2001/XMLSchema-instance" xsi:noNamespaceSchemaLocation="http://sumo.dlr.de/xsd/netconvertConfiguration.xsd">

    <input>
        <type-files value="/opt/homebrew/Cellar/sumo/1.20.0/share/sumo/tools/../data/typemap/osmNetconvert.typ.xml,/opt/homebrew/Cellar/sumo/1.20.0/share/sumo/tools/../data/typemap/osmNetconvertAerialway.typ.xml"/>
        <osm-files value="osm_bbox.osm.xml.gz"/>
    </input>

    <output>
        <output-file value="osm.net.xml.gz"/>
        <output.street-names value="true"/>
        <output.original-names value="true"/>
        <ptstop-output value="osm_stops.add.xml"/>
        <ptline-output value="osm_ptlines.xml"/>
    </output>

    <projection>
        <proj.utm value="true"/>
    </projection>

    <processing>
        <geometry.remove value="true"/>
        <roundabouts.guess value="true"/>
    </processing>

    <tls_building>
        <tls.discard-simple value="true"/>
        <tls.join value="true"/>
        <tls.guess-signals value="true"/>
        <tls.default-type value="actuated"/>
    </tls_building>

    <ramp_guessing>
        <ramps.guess value="true"/>
    </ramp_guessing>

    <edge_removal>
        <keep-edges.by-vclass value="passenger,bus,tram,rail_urban,subway,cable_car,rail"/>
    </edge_removal>

    <junctions>
        <junctions.join value="true"/>
        <junctions.corner-detail value="5"/>
    </junctions>

    <railway>
        <railway.topology.repair value="true"/>
    </railway>

</configuration>
-->

<net version="1.20" junctionCornerDetail="5" limitTurnSpeed="5.50" xmlns:xsi="http://www.w3.org/2001/XMLSchema-instance" xsi:noNamespaceSchemaLocation="http://sumo.dlr.de/xsd/net_file.xsd">

    <location netOffset="-320589.53,-4159004.95" convBoundary="0.00,0.00,1671.72,1071.99" origBoundary="126.968603,37.560914,126.987418,37.570415" projParameter="+proj=utm +zone=52 +ellps=WGS84 +datum=WGS84 +units=m +no_defs"/>

    <type id="highway.primary" priority="12" numLanes="2" speed="27.78" disallow="tram rail_urban rail rail_electric rail_fast ship container cable_car subway aircraft wheelchair scooter drone" oneway="0"/>
    <type id="highway.primary_link" priority="7" numLanes="1" speed="22.22" disallow="tram rail_urban rail rail_electric rail_fast ship container cable_car subway aircraft wheelchair scooter drone" oneway="0"/>
    <type id="highway.residential" priority="3" numLanes="1" speed="13.89" disallow="tram rail_urban rail rail_electric rail_fast ship container cable_car subway aircraft wheelchair scooter drone" oneway="0"/>
    <type id="highway.secondary" priority="11" numLanes="1" speed="27.78" disallow="tram rail_urban rail rail_electric rail_fast ship container cable_car subway aircraft wheelchair scooter drone" oneway="0"/>
    <type id="highway.tertiary" priority="10" numLanes="1" speed="22.22" disallow="tram rail_urban rail rail_electric rail_fast ship container cable_car subway aircraft wheelchair scooter drone" oneway="0"/>
    <type id="railway.rail" priority="20" numLanes="1" speed="44.44" allow="rail" oneway="1"/>
    <type id="railway.subway" priority="18" numLanes="1" speed="27.78" allow="subway" oneway="1"/>

    <edge id=":10232270038_0" function="internal">
        <lane id=":10232270038_0_0" index="0" disallow="tram rail_urban rail rail_electric rail_fast ship container cable_car subway aircraft wheelchair scooter drone" speed="27.78" length="17.61" shape="1240.93,644.11 1240.22,626.44"/>
        <lane id=":10232270038_0_1" index="1" disallow="tram rail_urban rail rail_electric rail_fast ship container cable_car subway aircraft wheelchair scooter drone" speed="27.78" length="17.61" shape="1244.12,643.92 1243.42,626.32"/>
        <lane id=":10232270038_0_2" index="2" disallow="tram rail_urban rail rail_electric rail_fast ship container cable_car subway aircraft wheelchair scooter drone" speed="27.78" length="17.61" shape="1247.31,643.73 1246.61,626.20"/>
    </edge>
    <edge id=":10232270038_3" function="internal">
        <lane id=":10232270038_3_0" index="0" disallow="tram rail_urban rail rail_electric rail_fast ship container cable_car subway aircraft wheelchair scooter drone" speed="3.65" length="1.44" shape="1247.31,643.73 1248.04,642.48"/>
    </edge>
    <edge id=":10232270038_14" function="internal">
        <lane id=":10232270038_14_0" index="0" disallow="tram rail_urban rail rail_electric rail_fast ship container cable_car subway aircraft wheelchair scooter drone" speed="3.65" length="3.23" shape="1248.04,642.48 1248.82,642.03 1249.64,642.39 1250.51,643.54"/>
    </edge>
    <edge id=":10232270038_4" function="internal">
        <lane id=":10232270038_4_0" index="0" disallow="tram rail_urban rail rail_electric rail_fast ship container cable_car subway aircraft wheelchair scooter drone" speed="12.04" length="17.08" shape="1266.81,626.55 1264.99,628.92 1263.79,632.41 1263.23,637.03 1263.29,642.78"/>
        <lane id=":10232270038_4_1" index="1" disallow="tram rail_urban rail rail_electric rail_fast ship container cable_car subway aircraft wheelchair scooter drone" speed="12.49" length="18.41" shape="1266.81,626.55 1263.64,629.89 1261.47,633.74 1260.28,638.10 1260.09,642.97"/>
    </edge>
    <edge id=":10232270038_6" function="internal">
        <lane id=":10232270038_6_0" index="0" disallow="tram rail_urban rail rail_electric rail_fast ship container cable_car subway aircraft wheelchair scooter drone" speed="9.43" length="30.31" shape="1266.81,626.55 1259.03,631.88 1251.57,634.45 1245.88,633.02 1243.42,626.32"/>
        <lane id=":10232270038_6_1" index="1" disallow="tram rail_urban rail rail_electric rail_fast ship container cable_car subway aircraft wheelchair scooter drone" speed="8.80" length="26.18" shape="1266.81,626.55 1260.09,631.13 1253.65,633.29 1248.74,632.01 1246.61,626.20"/>
    </edge>
    <edge id=":10232270038_8" function="internal">
        <lane id=":10232270038_8_0" index="0" disallow="tram rail_urban rail rail_electric rail_fast ship container cable_car subway aircraft wheelchair scooter drone" speed="27.78" length="17.33" shape="1262.60,625.60 1263.29,642.78"/>
        <lane id=":10232270038_8_1" index="1" disallow="tram rail_urban rail rail_electric rail_fast ship container cable_car subway aircraft wheelchair scooter drone" speed="27.78" length="17.33" shape="1259.40,625.72 1260.09,642.97"/>
        <lane id=":10232270038_8_2" index="2" disallow="tram rail_urban rail rail_electric rail_fast ship container cable_car subway aircraft wheelchair scooter drone" speed="27.78" length="17.33" shape="1256.21,625.84 1256.90,643.16"/>
        <lane id=":10232270038_8_3" index="3" disallow="tram rail_urban rail rail_electric rail_fast ship container cable_car subway aircraft wheelchair scooter drone" speed="27.78" length="17.33" shape="1253.01,625.96 1253.70,643.35"/>
        <lane id=":10232270038_8_4" index="4" disallow="tram rail_urban rail rail_electric rail_fast ship container cable_car subway aircraft wheelchair scooter drone" speed="27.78" length="17.33" shape="1249.81,626.08 1250.51,643.54"/>
    </edge>
    <edge id=":10232270038_13" function="internal">
        <lane id=":10232270038_13_0" index="0" disallow="tram rail_urban rail rail_electric rail_fast ship container cable_car subway aircraft wheelchair scooter drone" speed="3.65" length="1.44" shape="1249.81,626.08 1249.06,627.31"/>
    </edge>
    <edge id=":10232270038_15" function="internal">
        <lane id=":10232270038_15_0" index="0" disallow="tram rail_urban rail rail_electric rail_fast ship container cable_car subway aircraft wheelchair scooter drone" speed="3.65" length="3.23" shape="1249.06,627.31 1248.27,627.74 1247.46,627.37 1246.61,626.20"/>
    </edge>
    <edge id=":10316028040_0" function="internal">
        <lane id=":10316028040_0_0" index="0" disallow="tram rail_urban rail rail_electric rail_fast ship container cable_car subway aircraft wheelchair scooter drone" speed="27.78" length="8.33" shape="943.29,55.19 940.81,55.23 939.12,56.03 937.43,56.85 934.94,56.94"/>
        <lane id=":10316028040_0_1" index="1" disallow="tram rail_urban rail rail_electric rail_fast ship container cable_car subway aircraft wheelchair scooter drone" speed="27.78" length="8.33" shape="943.29,55.19 935.47,53.79"/>
    </edge>
    <edge id=":10316028040_2" function="internal">
        <lane id=":10316028040_2_0" index="0" disallow="tram rail_urban rail rail_electric rail_fast ship container cable_car subway aircraft wheelchair scooter drone" speed="27.78" length="8.85" shape="936.54,47.47 938.89,48.38 940.22,49.73 941.55,51.09 943.89,52.05"/>
    </edge>
    <edge id=":10316028050_0" function="internal">
        <lane id=":10316028050_0_0" index="0" disallow="tram rail_urban rail rail_electric rail_fast ship container cable_car subway aircraft wheelchair scooter drone" speed="27.78" length="8.70" shape="969.94,63.65 967.67,62.64 966.41,61.25 965.15,59.88 962.86,58.93"/>
    </edge>
    <edge id=":10316028050_1" function="internal">
        <lane id=":10316028050_1_0" index="0" disallow="tram rail_urban rail rail_electric rail_fast ship container cable_car subway aircraft wheelchair scooter drone" speed="27.78" length="8.43" shape="963.46,55.79 965.99,55.76 967.73,54.99 969.47,54.23 971.99,54.27"/>
        <lane id=":10316028050_1_1" index="1" disallow="tram rail_urban rail rail_electric rail_fast ship container cable_car subway aircraft wheelchair scooter drone" speed="27.78" length="8.43" shape="963.46,55.79 971.31,57.39"/>
    </edge>
    <edge id=":11050691924_0" function="internal">
        <lane id=":11050691924_0_0" index="0" disallow="tram rail_urban rail rail_electric rail_fast ship container cable_car subway aircraft wheelchair scooter drone" speed="12.50" length="14.31" shape="795.45,1060.78 791.12,1061.37 788.07,1062.74 785.66,1064.74 783.23,1067.22"/>
    </edge>
    <edge id=":11050691924_1" function="internal">
        <lane id=":11050691924_1_0" index="0" disallow="tram rail_urban rail rail_electric rail_fast ship container cable_car subway aircraft wheelchair scooter drone" speed="16.67" length="13.33" shape="795.45,1060.78 782.08,1061.29"/>
        <lane id=":11050691924_1_1" index="1" disallow="tram rail_urban rail rail_electric rail_fast ship container cable_car subway aircraft wheelchair scooter drone" speed="16.67" length="13.33" shape="795.36,1057.58 782.02,1058.09"/>
        <lane id=":11050691924_1_2" index="2" disallow="tram rail_urban rail rail_electric rail_fast ship container cable_car subway aircraft wheelchair scooter drone" speed="16.67" length="13.33" shape="795.27,1054.38 781.97,1054.89"/>
        <lane id=":11050691924_1_3" index="3" disallow="tram rail_urban rail rail_electric rail_fast ship container cable_car subway aircraft wheelchair scooter drone" speed="16.67" length="13.33" shape="795.17,1051.18 781.91,1051.69"/>
    </edge>
    <edge id=":11170069512_0" function="internal">
        <lane id=":11170069512_0_0" index="0" disallow="tram rail_urban rail rail_electric rail_fast ship container cable_car subway aircraft wheelchair scooter drone" speed="3.65" length="4.67" shape="1663.87,493.68 1665.11,494.43 1665.54,495.21 1665.18,496.03 1664.01,496.88"/>
    </edge>
    <edge id=":11170069517_0" function="internal">
        <lane id=":11170069517_0_0" index="0" disallow="tram rail_urban rail rail_electric rail_fast ship container cable_car subway aircraft wheelchair scooter drone" speed="25.00" length="9.14" shape="1649.01,787.19 1651.49,786.59 1652.91,785.33 1654.30,783.86 1656.67,782.62"/>
    </edge>
    <edge id=":11198026214_0" function="internal">
        <lane id=":11198026214_0_0" index="0" disallow="tram rail_urban rail rail_electric rail_fast ship container cable_car subway aircraft wheelchair scooter drone" speed="3.65" length="4.67" shape="1285.18,1059.37 1284.48,1060.63 1283.71,1061.10 1282.88,1060.77 1281.99,1059.64"/>
    </edge>
    <edge id=":11233115502_0" function="internal">
        <lane id=":11233115502_0_0" index="0" disallow="tram rail_urban rail rail_electric rail_fast ship container cable_car subway aircraft wheelchair scooter drone" speed="6.34" length="9.04" shape="1248.92,799.18 1248.52,796.70 1247.42,795.02 1245.61,794.12 1243.11,794.00"/>
    </edge>
    <edge id=":11233115502_1" function="internal">
        <lane id=":11233115502_1_0" index="0" disallow="tram rail_urban rail rail_electric rail_fast ship container cable_car subway aircraft wheelchair scooter drone" speed="27.78" length="14.56" shape="1248.92,799.18 1248.47,784.72"/>
        <lane id=":11233115502_1_1" index="1" disallow="tram rail_urban rail rail_electric rail_fast ship container cable_car subway aircraft wheelchair scooter drone" speed="27.78" length="14.56" shape="1252.12,799.12 1251.67,784.57"/>
        <lane id=":11233115502_1_2" index="2" disallow="tram rail_urban rail rail_electric rail_fast ship container cable_car subway aircraft wheelchair scooter drone" speed="27.78" length="14.56" shape="1255.32,799.07 1254.86,784.42"/>
    </edge>
    <edge id=":11233115502_4" function="internal">
        <lane id=":11233115502_4_0" index="0" disallow="tram rail_urban rail rail_electric rail_fast ship container cable_car subway aircraft wheelchair scooter drone" speed="3.65" length="1.44" shape="1255.32,799.07 1256.10,797.85"/>
    </edge>
    <edge id=":11233115502_17" function="internal">
        <lane id=":11233115502_17_0" index="0" disallow="tram rail_urban rail rail_electric rail_fast ship container cable_car subway aircraft wheelchair scooter drone" speed="3.65" length="3.23" shape="1256.10,797.85 1256.89,797.44 1257.70,797.82 1258.52,799.01"/>
    </edge>
    <edge id=":11233115502_5" function="internal">
        <lane id=":11233115502_5_0" index="0" disallow="tram rail_urban rail rail_electric rail_fast ship container cable_car subway aircraft wheelchair scooter drone" speed="27.78" length="14.94" shape="1270.85,783.67 1271.31,798.79"/>
        <lane id=":11233115502_5_1" index="1" disallow="tram rail_urban rail rail_electric rail_fast ship container cable_car subway aircraft wheelchair scooter drone" speed="27.78" length="14.94" shape="1267.65,783.82 1268.12,798.84"/>
        <lane id=":11233115502_5_2" index="2" disallow="tram rail_urban rail rail_electric rail_fast ship container cable_car subway aircraft wheelchair scooter drone" speed="27.78" length="14.94" shape="1264.45,783.97 1264.92,798.90"/>
        <lane id=":11233115502_5_3" index="3" disallow="tram rail_urban rail rail_electric rail_fast ship container cable_car subway aircraft wheelchair scooter drone" speed="27.78" length="14.94" shape="1261.26,784.12 1261.72,798.95"/>
        <lane id=":11233115502_5_4" index="4" disallow="tram rail_urban rail rail_electric rail_fast ship container cable_car subway aircraft wheelchair scooter drone" speed="27.78" length="14.94" shape="1258.06,784.27 1258.52,799.01"/>
    </edge>
    <edge id=":11233115502_10" function="internal">
        <lane id=":11233115502_10_0" index="0" disallow="tram rail_urban rail rail_electric rail_fast ship container cable_car subway aircraft wheelchair scooter drone" speed="9.51" length="3.03" shape="1258.06,784.27 1257.43,787.24"/>
    </edge>
    <edge id=":11233115502_11" function="internal">
        <lane id=":11233115502_11_0" index="0" disallow="tram rail_urban rail rail_electric rail_fast ship container cable_car subway aircraft wheelchair scooter drone" speed="3.65" length="1.44" shape="1258.06,784.27 1257.32,785.51"/>
    </edge>
    <edge id=":11233115502_18" function="internal">
        <lane id=":11233115502_18_0" index="0" disallow="tram rail_urban rail rail_electric rail_fast ship container cable_car subway aircraft wheelchair scooter drone" speed="9.51" length="16.63" shape="1257.43,787.24 1257.27,787.96 1254.52,790.82 1249.80,792.83 1243.11,794.00"/>
    </edge>
    <edge id=":11233115502_19" function="internal">
        <lane id=":11233115502_19_0" index="0" disallow="tram rail_urban rail rail_electric rail_fast ship container cable_car subway aircraft wheelchair scooter drone" speed="3.65" length="3.23" shape="1257.32,785.51 1256.54,785.94 1255.72,785.58 1254.86,784.42"/>
    </edge>
    <edge id=":11233115502_12" function="internal">
        <lane id=":11233115502_12_0" index="0" disallow="tram rail_urban rail rail_electric rail_fast ship container cable_car subway aircraft wheelchair scooter drone" speed="6.74" length="9.39" shape="1242.80,790.82 1245.38,790.22 1247.18,789.00 1248.21,787.17 1248.47,784.72"/>
    </edge>
    <edge id=":11233115502_13" function="internal">
        <lane id=":11233115502_13_0" index="0" disallow="tram rail_urban rail rail_electric rail_fast ship container cable_car subway aircraft wheelchair scooter drone" speed="10.40" length="26.21" shape="1242.80,790.82 1252.41,790.51 1259.30,791.76 1263.47,794.55 1264.92,798.90"/>
        <lane id=":11233115502_13_1" index="1" disallow="tram rail_urban rail rail_electric rail_fast ship container cable_car subway aircraft wheelchair scooter drone" speed="9.81" length="23.19" shape="1242.80,790.82 1251.01,790.64 1256.90,791.93 1260.47,794.70 1261.72,798.95"/>
        <lane id=":11233115502_13_2" index="2" disallow="tram rail_urban rail rail_electric rail_fast ship container cable_car subway aircraft wheelchair scooter drone" speed="9.19" length="20.22" shape="1242.80,790.82 1249.61,790.76 1254.50,792.10 1257.47,794.85 1258.52,799.01"/>
    </edge>
    <edge id=":11233115502_16" function="internal">
        <lane id=":11233115502_16_0" index="0" disallow="tram rail_urban rail rail_electric rail_fast ship container cable_car subway aircraft wheelchair scooter drone" speed="3.65" length="4.67" shape="1242.80,790.82 1244.07,791.50 1244.55,792.26 1244.23,793.09 1243.11,794.00"/>
    </edge>
    <edge id=":11252413185_0" function="internal">
        <lane id=":11252413185_0_0" index="0" disallow="tram rail_urban rail rail_electric rail_fast ship container cable_car subway aircraft wheelchair scooter drone" speed="3.65" length="4.67" shape="11.47,321.17 11.15,319.77 11.42,318.91 12.26,318.61 13.68,318.86"/>
    </edge>
    <edge id=":11252413185_1" function="internal">
        <lane id=":11252413185_1_0" index="0" disallow="tram rail_urban rail rail_electric rail_fast ship container cable_car subway aircraft wheelchair scooter drone" speed="6.56" length="7.76" shape="12.82,311.84 11.96,313.73 11.82,315.53 12.39,317.24 13.68,318.86"/>
    </edge>
    <edge id=":11252413262_0" function="internal">
        <lane id=":11252413262_0_0" index="0" disallow="tram rail_urban rail rail_electric rail_fast ship container cable_car subway aircraft wheelchair scooter drone" speed="6.55" length="8.80" shape="38.67,280.94 36.43,280.07 34.42,280.09 32.64,281.02 31.10,282.84"/>
    </edge>
    <edge id=":11252413262_1" function="internal">
        <lane id=":11252413262_1_0" index="0" disallow="tram rail_urban rail rail_electric rail_fast ship container cable_car subway aircraft wheelchair scooter drone" speed="3.65" length="4.67" shape="38.67,280.94 38.01,279.66 38.06,278.76 38.80,278.26 40.23,278.15"/>
    </edge>
    <edge id=":11252413262_2" function="internal">
        <lane id=":11252413262_2_0" index="0" disallow="tram rail_urban rail rail_electric rail_fast ship container cable_car subway aircraft wheelchair scooter drone" speed="5.49" length="5.94" shape="36.21,274.21 36.21,274.94 36.88,275.85 38.22,276.92 40.23,278.15"/>
    </edge>
    <edge id=":11252413262_3" function="internal">
        <lane id=":11252413262_3_0" index="0" disallow="tram rail_urban rail rail_electric rail_fast ship container cable_car subway aircraft wheelchair scooter drone" speed="27.78" length="9.75" shape="36.21,274.21 34.82,276.84 33.80,278.61 32.70,280.33 31.10,282.84"/>
        <lane id=":11252413262_3_1" index="1" disallow="tram rail_urban rail rail_electric rail_fast ship container cable_car subway aircraft wheelchair scooter drone" speed="27.78" length="9.75" shape="33.36,272.75 32.01,275.31 31.02,277.02 29.95,278.69 28.39,281.13"/>
        <lane id=":11252413262_3_2" index="2" disallow="tram rail_urban rail rail_electric rail_fast ship container cable_car subway aircraft wheelchair scooter drone" speed="27.78" length="9.75" shape="30.51,271.29 29.20,273.78 28.24,275.44 27.20,277.06 25.68,279.43"/>
    </edge>
    <edge id=":11270546902_0" function="internal">
        <lane id=":11270546902_0_0" index="0" disallow="tram rail_urban rail rail_electric rail_fast ship container cable_car subway aircraft wheelchair scooter drone" speed="10.33" length="9.11" shape="515.14,974.54 513.17,972.66 511.70,971.36 510.02,970.62 507.43,970.43"/>
    </edge>
    <edge id=":11270546902_1" function="internal">
        <lane id=":11270546902_1_0" index="0" disallow="tram rail_urban rail rail_electric rail_fast ship container cable_car subway aircraft wheelchair scooter drone" speed="8.01" length="13.80" shape="515.14,974.54 512.70,971.66 511.73,968.68 512.22,965.58 514.17,962.38"/>
    </edge>
    <edge id=":11270546902_2" function="internal">
        <lane id=":11270546902_2_0" index="0" disallow="tram rail_urban rail rail_electric rail_fast ship container cable_car subway aircraft wheelchair scooter drone" speed="9.15" length="8.58" shape="507.36,967.23 508.86,966.90 510.50,965.98 512.27,964.47 514.17,962.38"/>
    </edge>
    <edge id=":11270546910_0" function="internal">
        <lane id=":11270546910_0_0" index="0" disallow="tram rail_urban rail rail_electric rail_fast ship container cable_car subway aircraft wheelchair scooter drone" speed="13.89" length="10.13" shape="537.41,970.82 534.54,971.20 532.71,972.09 531.01,973.44 528.53,975.17"/>
    </edge>
    <edge id=":11270546910_1" function="internal">
        <lane id=":11270546910_1_0" index="0" disallow="tram rail_urban rail rail_electric rail_fast ship container cable_car subway aircraft wheelchair scooter drone" speed="9.17" length="8.98" shape="530.19,962.52 532.32,964.78 534.22,966.38 535.89,967.33 537.33,967.62"/>
    </edge>
    <edge id=":11270546910_2" function="internal">
        <lane id=":11270546910_2_0" index="0" disallow="tram rail_urban rail rail_electric rail_fast ship container cable_car subway aircraft wheelchair scooter drone" speed="7.80" length="15.20" shape="530.19,962.52 532.58,966.18 533.10,969.51 531.75,972.51 528.53,975.17"/>
    </edge>
    <edge id=":11270546915_0" function="internal">
        <lane id=":11270546915_0_0" index="0" disallow="tram rail_urban rail rail_electric rail_fast ship container cable_car subway aircraft wheelchair scooter drone" speed="6.42" length="9.04" shape="380.10,974.06 377.61,973.97 375.72,974.71 374.43,976.28 373.75,978.67"/>
    </edge>
    <edge id=":11270546915_1" function="internal">
        <lane id=":11270546915_1_0" index="0" disallow="tram rail_urban rail rail_electric rail_fast ship container cable_car subway aircraft wheelchair scooter drone" speed="13.89" length="14.42" shape="380.10,974.06 376.50,973.38 373.03,972.61 369.61,971.67 366.16,970.48"/>
    </edge>
    <edge id=":11270546915_2" function="internal">
        <lane id=":11270546915_2_0" index="0" disallow="tram rail_urban rail rail_electric rail_fast ship container cable_car subway aircraft wheelchair scooter drone" speed="3.65" length="1.44" shape="380.10,974.06 379.06,973.06"/>
    </edge>
    <edge id=":11270546915_9" function="internal">
        <lane id=":11270546915_9_0" index="0" disallow="tram rail_urban rail rail_electric rail_fast ship container cable_car subway aircraft wheelchair scooter drone" speed="3.65" length="3.23" shape="379.06,973.06 378.81,972.20 379.34,971.48 380.66,970.91"/>
    </edge>
    <edge id=":11270546915_3" function="internal">
        <lane id=":11270546915_3_0" index="0" disallow="tram rail_urban rail rail_electric rail_fast ship container cable_car subway aircraft wheelchair scooter drone" speed="13.89" length="14.43" shape="366.72,967.27 370.18,968.47 373.60,969.43 377.06,970.22 380.66,970.91"/>
    </edge>
    <edge id=":11270546915_4" function="internal">
        <lane id=":11270546915_4_0" index="0" disallow="tram rail_urban rail rail_electric rail_fast ship container cable_car subway aircraft wheelchair scooter drone" speed="8.88" length="3.98" shape="366.72,967.27 370.22,969.15"/>
    </edge>
    <edge id=":11270546915_5" function="internal">
        <lane id=":11270546915_5_0" index="0" disallow="tram rail_urban rail rail_electric rail_fast ship container cable_car subway aircraft wheelchair scooter drone" speed="3.67" length="1.47" shape="366.72,967.27 367.78,968.28"/>
    </edge>
    <edge id=":11270546915_10" function="internal">
        <lane id=":11270546915_10_0" index="0" disallow="tram rail_urban rail rail_electric rail_fast ship container cable_car subway aircraft wheelchair scooter drone" speed="8.88" length="10.65" shape="370.22,969.15 372.56,971.68 373.74,974.85 373.75,978.67"/>
    </edge>
    <edge id=":11270546915_11" function="internal">
        <lane id=":11270546915_11_0" index="0" disallow="tram rail_urban rail rail_electric rail_fast ship container cable_car subway aircraft wheelchair scooter drone" speed="3.67" length="3.29" shape="367.78,968.28 368.04,969.16 367.50,969.89 366.16,970.48"/>
    </edge>
    <edge id=":11270546915_6" function="internal">
        <lane id=":11270546915_6_0" index="0" disallow="tram rail_urban rail rail_electric rail_fast ship container cable_car subway aircraft wheelchair scooter drone" speed="7.35" length="9.75" shape="370.58,978.24 370.60,975.59 369.87,973.41 368.39,971.71 366.16,970.48"/>
    </edge>
    <edge id=":11270546915_7" function="internal">
        <lane id=":11270546915_7_0" index="0" disallow="tram rail_urban rail rail_electric rail_fast ship container cable_car subway aircraft wheelchair scooter drone" speed="7.93" length="14.35" shape="370.58,978.24 371.67,974.43 373.71,971.95 376.71,970.77 380.66,970.91"/>
    </edge>
    <edge id=":11270546915_8" function="internal">
        <lane id=":11270546915_8_0" index="0" disallow="tram rail_urban rail rail_electric rail_fast ship container cable_car subway aircraft wheelchair scooter drone" speed="3.65" length="4.67" shape="370.58,978.24 371.53,977.16 372.38,976.87 373.12,977.37 373.75,978.67"/>
    </edge>
    <edge id=":11347624895_0" function="internal">
        <lane id=":11347624895_0_0" index="0" disallow="tram rail_urban rail rail_electric rail_fast ship container cable_car subway aircraft wheelchair scooter drone" speed="7.45" length="12.05" shape="642.74,136.38 641.50,134.22 639.35,133.03 636.29,132.82 632.32,133.58"/>
    </edge>
    <edge id=":11347624895_1" function="internal">
        <lane id=":11347624895_1_0" index="0" disallow="tram rail_urban rail rail_electric rail_fast ship container cable_car subway aircraft wheelchair scooter drone" speed="16.67" length="14.56" shape="642.74,136.38 638.15,122.55"/>
        <lane id=":11347624895_1_1" index="1" disallow="tram rail_urban rail rail_electric rail_fast ship container cable_car subway aircraft wheelchair scooter drone" speed="16.67" length="14.56" shape="645.77,135.36 641.18,121.54"/>
        <lane id=":11347624895_1_2" index="2" disallow="tram rail_urban rail rail_electric rail_fast ship container cable_car subway aircraft wheelchair scooter drone" speed="16.67" length="14.56" shape="648.81,134.33 644.21,120.52"/>
        <lane id=":11347624895_1_3" index="3" disallow="tram rail_urban rail rail_electric rail_fast ship container cable_car subway aircraft wheelchair scooter drone" speed="16.67" length="14.56" shape="651.84,133.31 647.25,119.50"/>
        <lane id=":11347624895_1_4" index="4" disallow="tram rail_urban rail rail_electric rail_fast ship container cable_car subway aircraft wheelchair scooter drone" speed="16.67" length="14.56" shape="654.88,132.29 650.28,118.48"/>
        <lane id=":11347624895_1_5" index="5" disallow="tram rail_urban rail rail_electric rail_fast ship container cable_car subway aircraft wheelchair scooter drone" speed="16.67" length="14.56" shape="657.91,131.27 653.32,117.47"/>
        <lane id=":11347624895_1_6" index="6" disallow="tram rail_urban rail rail_electric rail_fast ship container cable_car subway aircraft wheelchair scooter drone" speed="16.67" length="14.56" shape="660.95,130.25 656.35,116.45"/>
        <lane id=":11347624895_1_7" index="7" disallow="tram rail_urban rail rail_electric rail_fast ship container cable_car subway aircraft wheelchair scooter drone" speed="16.67" length="14.56" shape="663.98,129.23 659.38,115.43"/>
    </edge>
    <edge id=":11347624895_9" function="internal">
        <lane id=":11347624895_9_0" index="0" disallow="tram rail_urban rail rail_electric rail_fast ship container cable_car subway aircraft wheelchair scooter drone" speed="6.40" length="9.04" shape="631.45,130.50 633.73,129.49 635.10,128.00 635.56,126.03 635.11,123.57"/>
        <lane id=":11347624895_9_1" index="1" disallow="tram rail_urban rail rail_electric rail_fast ship container cable_car subway aircraft wheelchair scooter drone" speed="7.23" length="11.82" shape="631.45,130.50 635.08,129.10 637.40,127.31 638.42,125.13 638.15,122.55"/>
        <lane id=":11347624895_9_2" index="2" disallow="tram rail_urban rail rail_electric rail_fast ship container cable_car subway aircraft wheelchair scooter drone" speed="8.00" length="14.74" shape="631.45,130.50 636.42,128.71 639.70,126.62 641.29,124.23 641.18,121.54"/>
        <lane id=":11347624895_9_3" index="3" disallow="tram rail_urban rail rail_electric rail_fast ship container cable_car subway aircraft wheelchair scooter drone" speed="8.73" length="17.73" shape="631.45,130.50 637.77,128.32 642.00,125.93 644.15,123.33 644.21,120.52"/>