<?xml version='1.0' encoding='utf-8'?>
<routes><vType id="taxi" vClass="taxi" /><vehicle id="taxi_0" type="taxi" depart="0" line="taxi" insertionCheck="all"><param key="has.taxi.device" value="true" /><route edges="1199229109" /></vehicle><vehicle id="taxi_1" type="taxi" depart="0" line="taxi" insertionCheck="all"><param key="has.taxi.device" value="true" /><route edges="-198691062#0" /></vehicle><vehicle id="taxi_2" type="taxi" depart="0" line="taxi" insertionCheck="all"><param key="has.taxi.device" value="true" /><route edges="218923156#5" /></vehicle><vehicle id="taxi_3" type="taxi" depart="0" line="taxi" insertionCheck="all"><param key="has.taxi.device" value="true" /><route edges="-637016278#1" /></vehicle><vehicle id="taxi_4" type="taxi" depart="0" line="taxi" insertionCheck="all"><param key="has.taxi.device" value="true" /><route edges="921796625" /></vehicle><vehicle id="taxi_5" type="taxi" depart="0" line="taxi" insertionCheck="all"><param key="has.taxi.device" value="true" /><route edges="233651326#0" /></vehicle><vehicle id="taxi_6" type="taxi" depart="0" line="taxi" insertionCheck="all"><param key="has.taxi.device" value="true" /><route edges="908694578#5" /></vehicle><vehicle id="taxi_7" type="taxi" depart="0" line="taxi" insertionCheck="all"><param key="has.taxi.device" value="true" /><route edges="619147734" /></vehicle><vehicle id="taxi_8" type="taxi" depart="0" line="taxi" insertionCheck="all"><param key="has.taxi.device" value="true" /><route edges="360113078#1" /></vehicle><vehicle id="taxi_9" type="taxi" depart="0" line="taxi" insertionCheck="all"><param key="has.taxi.device" value="true" /><route edges="908646367#2" /></vehicle></routes>