<?xml version="1.0" encoding="UTF-8"?>

<!-- generated on 2025-12-13 23:30:53.456105 by $Id: ptlines2flows.py v1_3_1+0313-ccb31df3eb jakob.erdmann@dlr.de 2019-09-02 13:26:32 +0200 $ UNKNOWN
<configuration>
    <net-file value="/opt/homebrew/Cellar/sumo/1.20.0/share/sumo/tools/2025-12-13-23-30-44/osm.net.xml.gz"/>
    <ptlines-file value="/opt/homebrew/Cellar/sumo/1.20.0/share/sumo/tools/2025-12-13-23-30-44/osm_ptlines.xml"/>
    <ptstops-file value="/opt/homebrew/Cellar/sumo/1.20.0/share/sumo/tools/2025-12-13-23-30-44/osm_stops.add.xml"/>
    <output-file value="/opt/homebrew/Cellar/sumo/1.20.0/share/sumo/tools/2025-12-13-23-30-44/osm_pt.rou.xml"/>
    <stopinfos-file value="/opt/homebrew/Cellar/sumo/1.20.0/share/sumo/tools/2025-12-13-23-30-44/stopinfos.xml"/>
    <routes-file value="/opt/homebrew/Cellar/sumo/1.20.0/share/sumo/tools/2025-12-13-23-30-44/vehroutes.xml"/>
    <trips-file value="/opt/homebrew/Cellar/sumo/1.20.0/share/sumo/tools/2025-12-13-23-30-44/trips.trips.xml"/>
    <min-stops value="0"/>
    <extend-to-fringe value="True"/>
    <random-begin value="True"/>
    <seed value="42"/>
    <ignore-errors value="True"/>
    <vtype-prefix value="pt_"/>
    <verbose value="True"/>
</configuration>
-->

<routes xmlns:xsi="http://www.w3.org/2001/XMLSchema-instance" xsi:noNamespaceSchemaLocation="http://sumo.dlr.de/xsd/routes_file.xsd">
    <vType id="pt_bus" vClass="bus" speedFactor="0.95"/>
    <vType id="pt_tram" vClass="tram" speedFactor="1.0"/>
    <vType id="pt_train" vClass="rail"/>
    <vType id="pt_subway" vClass="subway"/>
    <vType id="pt_light_rail" vClass="rail_urban"/>
    <vType id="pt_monorail" vClass="rail_urban"/>
    <vType id="pt_trolleybus" vClass="bus" speedFactor="0.95"/>
    <vType id="pt_minibus" vClass="bus" speedFactor="0.95"/>
    <vType id="pt_share_taxi" vClass="taxi" speedFactor="0.95"/>
    <vType id="pt_aerialway" vClass="cable_car" length="2.5" width="2" personCapacity="4"/>
    <vType id="pt_ferry" vClass="ship"/>
    <trip id="0_subway_1:0" type="pt_subway" depart="3.0" departLane="best" from="379994110" to="637016278#1">
        <stop busStop="3833430101" duration="30"/>  <!-- 시청 -->
        <stop busStop="3833429822" duration="30"/>  <!-- 종각 -->
    </trip>
    <trip id="1_subway_1:1" type="pt_subway" depart="15.0" departLane="best" from="637016283#0" to="637016267">
        <stop busStop="660871450" duration="30"/>  <!-- 종각 -->
        <stop busStop="8414031473" duration="30"/>  <!-- 시청 -->
    </trip>
    <trip id="2_subway_1:2" type="pt_subway" depart="15.0" departLane="best" from="379994110" to="637016278#1">
        <stop busStop="3833430101" duration="30"/>  <!-- 시청 -->
        <stop busStop="3833429822" duration="30"/>  <!-- 종각 -->
    </trip>
    <trip id="3_subway_1:3" type="pt_subway" depart="17.0" departLane="best" from="637016283#0" to="637016267">
        <stop busStop="660871450" duration="30"/>  <!-- 종각 -->
        <stop busStop="8414031473" duration="30"/>  <!-- 시청 -->
    </trip>
    <trip id="4_subway_1:4" type="pt_subway" depart="27.0" departLane="best" from="637016283#0" to="637016267">
        <stop busStop="660871450" duration="30"/>  <!-- 종각 -->
        <stop busStop="8414031473" duration="30"/>  <!-- 시청 -->
    </trip>
    <trip id="5_subway_1:5" type="pt_subway" depart="47.0" departLane="best" from="379994110" to="637016278#1">
        <stop busStop="3833430101" duration="30"/>  <!-- 시청 -->
        <stop busStop="3833429822" duration="30"/>  <!-- 종각 -->
    </trip>
    <trip id="6_subway_1:6" type="pt_subway" depart="52.0" departLane="best" from="379994110" to="637016278#1">
        <stop busStop="3833430101" duration="30"/>  <!-- 시청 -->
        <stop busStop="3833429822" duration="30"/>  <!-- 종각 -->
    </trip>
    <trip id="7_subway_1:7" type="pt_subway" depart="55.0" departLane="best" from="379994110" to="637016278#1">
        <stop busStop="3833430101" duration="30"/>  <!-- 시청 -->
        <stop busStop="3833429822" duration="30"/>  <!-- 종각 -->
    </trip>
    <trip id="11_subway_1:8" type="pt_subway" depart="119.0" departLane="best" from="379994110" to="637016278#1">
        <stop busStop="3833430101" duration="30"/>  <!-- 시청 -->
        <stop busStop="3833429822" duration="30"/>  <!-- 종각 -->
    </trip>
    <trip id="12_subway_1:9" type="pt_subway" depart="131.0" departLane="best" from="379994110" to="637016278#1">
        <stop busStop="3833430101" duration="30"/>  <!-- 시청 -->
        <stop busStop="3833429822" duration="30"/>  <!-- 종각 -->
    </trip>
    <trip id="13_subway_1:10" type="pt_subway" depart="132.0" departLane="best" from="637016283#0" to="637016267">
        <stop busStop="660871450" duration="30"/>  <!-- 종각 -->
        <stop busStop="8414031473" duration="30"/>  <!-- 시청 -->
    </trip>
    <trip id="14_subway_1:11" type="pt_subway" depart="133.0" departLane="best" from="637016283#0" to="637016267">
        <stop busStop="660871450" duration="30"/>  <!-- 종각 -->
        <stop busStop="8414031473" duration="30"/>  <!-- 시청 -->
    </trip>
    <trip id="15_subway_1:12" type="pt_subway" depart="136.0" departLane="best" from="379994110" to="637016278#1">
        <stop busStop="3833430101" duration="30"/>  <!-- 시청 -->
        <stop busStop="3833429822" duration="30"/>  <!-- 종각 -->
    </trip>
    <trip id="16_subway_1:13" type="pt_subway" depart="139.0" departLane="best" from="637016283#0" to="637016267">
        <stop busStop="660871450" duration="30"/>  <!-- 종각 -->
        <stop busStop="8414031473" duration="30"/>  <!-- 시청 -->
    </trip>
    <trip id="17_subway_1:14" type="pt_subway" depart="165.0" departLane="best" from="637016283#0" to="637016267">
        <stop busStop="660871450" duration="30"/>  <!-- 종각 -->
        <stop busStop="8414031473" duration="30"/>  <!-- 시청 -->
    </trip>
    <trip id="20_subway_1:15" type="pt_subway" depart="201.0" departLane="best" from="637016283#0" to="637016267">
        <stop busStop="660871450" duration="30"/>  <!-- 종각 -->
        <stop busStop="8414031473" duration="30"/>  <!-- 시청 -->
    </trip>
    <trip id="21_subway_1:16" type="pt_subway" depart="204.0" departLane="best" from="379994110" to="637016278#1">
        <stop busStop="3833430101" duration="30"/>  <!-- 시청 -->
        <stop busStop="3833429822" duration="30"/>  <!-- 종각 -->
    </trip>
    <trip id="22_subway_1:17" type="pt_subway" depart="218.0" departLane="best" from="379994110" to="637016278#1">
        <stop busStop="3833430101" duration="30"/>  <!-- 시청 -->
        <stop busStop="3833429822" duration="30"/>  <!-- 종각 -->
    </trip>
    <trip id="24_subway_1:18" type="pt_subway" depart="227.0" departLane="best" from="637016283#0" to="637016267">
        <stop busStop="660871450" duration="30"/>  <!-- 종각 -->
        <stop busStop="8414031473" duration="30"/>  <!-- 시청 -->
    </trip>
    <trip id="25_subway_1:19" type="pt_subway" depart="253.0" departLane="best" from="637016272#1" to="637016278#1">
        <stop busStop="3833430101" duration="30"/>  <!-- 시청 -->
        <stop busStop="3833429822" duration="30"/>  <!-- 종각 -->
    </trip>
    <trip id="26_subway_1:20" type="pt_subway" depart="303.0" departLane="best" from="637016283#0" to="637016267">
        <stop busStop="660871450" duration="30"/>  <!-- 종각 -->
        <stop busStop="8414031473" duration="30"/>  <!-- 시청 -->
    </trip>
    <trip id="27_subway_1:21" type="pt_subway" depart="321.0" departLane="best" from="637016283#0" to="637016267">
        <stop busStop="660871450" duration="30"/>  <!-- 종각 -->
        <stop busStop="8414031473" duration="30"/>  <!-- 시청 -->
    </trip>
    <trip id="28_subway_1:22" type="pt_subway" depart="326.0" departLane="best" from="637016283#0" to="637016267">
        <stop busStop="660871450" duration="30"/>  <!-- 종각 -->
        <stop busStop="8414031473" duration="30"/>  <!-- 시청 -->
    </trip>
    <trip id="29_subway_1:23" type="pt_subway" depart="331.0" departLane="best" from="637016272#1" to="637016278#1">
        <stop busStop="3833430101" duration="30"/>  <!-- 시청 -->
        <stop busStop="3833429822" duration="30"/>  <!-- 종각 -->
    </trip>
    <trip id="30_subway_1:24" type="pt_subway" depart="346.0" departLane="best" from="637016272#1" to="637016278#1">
        <stop busStop="3833430101" duration="30"/>  <!-- 시청 -->
        <stop busStop="3833429822" duration="30"/>  <!-- 종각 -->
    </trip>
    <trip id="31_subway_1:25" type="pt_subway" depart="353.0" departLane="best" from="637016272#1" to="637016278#1">
        <stop busStop="3833430101" duration="30"/>  <!-- 시청 -->
        <stop busStop="3833429822" duration="30"/>  <!-- 종각 -->
    </trip>
    <trip id="33_subway_1:26" type="pt_subway" depart="371.0" departLane="best" from="637016283#0" to="637016267">
        <stop busStop="660871450" duration="30"/>  <!-- 종각 -->
        <stop busStop="8414031473" duration="30"/>  <!-- 시청 -->
    </trip>
    <trip id="34_subway_1:27" type="pt_subway" depart="381.0" departLane="best" from="637016283#0" to="637016267">
        <stop busStop="660871450" duration="30"/>  <!-- 종각 -->
        <stop busStop="8414031473" duration="30"/>  <!-- 시청 -->
    </trip>
    <trip id="35_subway_1:28" type="pt_subway" depart="383.0" departLane="best" from="637016283#0" to="637016267">
        <stop busStop="660871450" duration="30"/>  <!-- 종각 -->
        <stop busStop="8414031473" duration="30"/>  <!-- 시청 -->
    </trip>
    <trip id="36_subway_1:29" type="pt_subway" depart="389.0" departLane="best" from="637016283#0" to="637016267">
        <stop busStop="660871450" duration="30"/>  <!-- 종각 -->
        <stop busStop="8414031473" duration="30"/>  <!-- 시청 -->
    </trip>
    <trip id="37_subway_1:30" type="pt_subway" depart="406.0" departLane="best" from="637016283#0" to="637016267">
        <stop busStop="660871450" duration="30"/>  <!-- 종각 -->
        <stop busStop="8414031473" duration="30"/>  <!-- 시청 -->
    </trip>
    <trip id="38_subway_1:31" type="pt_subway" depart="418.0" departLane="best" from="379994110" to="637016278#1">
        <stop busStop="3833430101" duration="30"/>  <!-- 시청 -->
        <stop busStop="3833429822" duration="30"/>  <!-- 종각 -->
    </trip>
    <trip id="39_subway_1:32" type="pt_subway" depart="422.0" departLane="best" from="379994110" to="637016278#1">
        <stop busStop="3833430101" duration="30"/>  <!-- 시청 -->
        <stop busStop="3833429822" duration="30"/>  <!-- 종각 -->
    </trip>
    <trip id="40_subway_2:0" type="pt_subway" depart="437.0" departLane="best" from="672454243" to="672454243">
        <stop busStop="1797562528" duration="30"/>  <!-- 시청 -->
    </trip>
    <trip id="42_subway_2:1" type="pt_subway" depart="483.0" departLane="best" from="628689299" to="628689299">
        <stop busStop="5935738062" duration="30"/>  <!-- 시청 -->
        <stop busStop="5935738081" duration="30"/>  <!-- 을지로입구 -->
    </trip>
    <trip id="43_subway_1:33" type="pt_subway" depart="484.0" departLane="best" from="637016283#0" to="637016267">
        <stop busStop="660871450" duration="30"/>  <!-- 종각 -->
        <stop busStop="8414031473" duration="30"/>  <!-- 시청 -->
    </trip>
    <trip id="44_subway_1:34" type="pt_subway" depart="485.0" departLane="best" from="379994110" to="637016278#1">
        <stop busStop="3833430101" duration="30"/>  <!-- 시청 -->
        <stop busStop="3833429822" duration="30"/>  <!-- 종각 -->
    </trip>
    <trip id="45_subway_1:35" type="pt_subway" depart="497.0" departLane="best" from="637016283#0" to="637016267">
        <stop busStop="660871450" duration="30"/>  <!-- 종각 -->
        <stop busStop="8414031473" duration="30"/>  <!-- 시청 -->
    </trip>
    <trip id="46_subway_1:36" type="pt_subway" depart="508.0" departLane="best" from="379994110" to="637016278#1">
        <stop busStop="3833430101" duration="30"/>  <!-- 시청 -->
        <stop busStop="3833429822" duration="30"/>  <!-- 종각 -->
    </trip>
    <trip id="47_subway_1:37" type="pt_subway" depart="517.0" departLane="best" from="379994110" to="637016278#1">
        <stop busStop="3833430101" duration="30"/>  <!-- 시청 -->
        <stop busStop="3833429822" duration="30"/>  <!-- 종각 -->
    </trip>
    <trip id="48_subway_1:38" type="pt_subway" depart="535.0" departLane="best" from="637016283#0" to="637016267">
        <stop busStop="660871450" duration="30"/>  <!-- 종각 -->
        <stop busStop="8414031473" duration="30"/>  <!-- 시청 -->
    </trip>
    <trip id="49_subway_1:39" type="pt_subway" depart="574.0" departLane="best" from="637016283#0" to="637016267">
        <stop busStop="660871450" duration="30"/>  <!-- 종각 -->
        <stop busStop="8414031473" duration="30"/>  <!-- 시청 -->
    </trip>
    <trip id="50_subway_1:40" type="pt_subway" depart="583.0" departLane="best" from="637016283#0" to="637016267">
        <stop busStop="660871450" duration="30"/>  <!-- 종각 -->
        <stop busStop="8414031473" duration="30"/>  <!-- 시청 -->
    </trip>
</routes>
