<?xml version="1.0" encoding="UTF-8"?>

<!-- generated on 2025-12-13 23:52:48 by Eclipse SUMO netconvert Version 1.20.0
<configuration xmlns:xsi="http://www.w3.org/2001/XMLSchema-instance" xsi:noNamespaceSchemaLocation="http://sumo.dlr.de/xsd/netconvertConfiguration.xsd">

    <input>
        <type-files value="/opt/homebrew/Cellar/sumo/1.20.0/share/sumo/tools/../data/typemap/osmNetconvert.typ.xml,/opt/homebrew/Cellar/sumo/1.20.0/share/sumo/tools/../data/typemap/osmNetconvertAerialway.typ.xml"/>
        <osm-files value="osm_bbox.osm.xml.gz"/>
    </input>

    <output>
        <output-file value="osm.net.xml.gz"/>
        <output.street-names value="true"/>
        <output.original-names value="true"/>
        <ptstop-output value="osm_stops.add.xml"/>
        <ptline-output value="osm_ptlines.xml"/>
    </output>

    <projection>
        <proj.utm value="true"/>
    </projection>

    <processing>
        <geometry.remove value="true"/>
        <roundabouts.guess value="true"/>
    </processing>

    <tls_building>
        <tls.discard-simple value="true"/>
        <tls.join value="true"/>
        <tls.guess-signals value="true"/>
        <tls.default-type value="actuated"/>
    </tls_building>

    <ramp_guessing>
        <ramps.guess value="true"/>
    </ramp_guessing>

    <edge_removal>
        <keep-edges.by-vclass value="passenger,bus,tram,rail_urban,subway,cable_car,rail"/>
    </edge_removal>

    <junctions>
        <junctions.join value="true"/>
        <junctions.corner-detail value="5"/>
    </junctions>

    <railway>
        <railway.topology.repair value="true"/>
    </railway>

</configuration>
-->

<net version="1.20" junctionCornerDetail="5" limitTurnSpeed="5.50" xmlns:xsi="http://www.w3.org/2001/XMLSchema-instance" xsi:noNamespaceSchemaLocation="http://sumo.dlr.de/xsd/net_file.xsd">

    <location netOffset="-584460.08,-4509688.48" convBoundary="0.00,0.00,1592.57,1021.24" origBoundary="-73.999704,40.733795,-73.980871,40.742857" projParameter="+proj=utm +zone=18 +ellps=WGS84 +datum=WGS84 +units=m +no_defs"/>

    <type id="highway.living_street" priority="2" numLanes="1" speed="2.78" disallow="tram rail_urban rail rail_electric rail_fast ship container cable_car subway aircraft wheelchair scooter drone" oneway="0"/>
    <type id="highway.primary" priority="12" numLanes="2" speed="27.78" disallow="tram rail_urban rail rail_electric rail_fast ship container cable_car subway aircraft wheelchair scooter drone" oneway="0"/>
    <type id="highway.residential" priority="3" numLanes="1" speed="13.89" disallow="tram rail_urban rail rail_electric rail_fast ship container cable_car subway aircraft wheelchair scooter drone" oneway="0"/>
    <type id="highway.secondary" priority="11" numLanes="1" speed="27.78" disallow="tram rail_urban rail rail_electric rail_fast ship container cable_car subway aircraft wheelchair scooter drone" oneway="0"/>
    <type id="highway.secondary_link" priority="6" numLanes="1" speed="22.22" disallow="tram rail_urban rail rail_electric rail_fast ship container cable_car subway aircraft wheelchair scooter drone" oneway="0"/>
    <type id="railway.subway" priority="18" numLanes="1" speed="27.78" allow="subway" oneway="1"/>

    <edge id=":10584037999_0" function="internal">
        <lane id=":10584037999_0_0" index="0" disallow="tram rail_urban rail rail_electric rail_fast ship container cable_car subway aircraft wheelchair scooter drone" speed="11.18" length="8.16" shape="214.58,340.69 215.86,342.66 217.07,343.78 218.30,344.89 219.65,346.82"/>
        <lane id=":10584037999_0_1" index="1" disallow="tram rail_urban rail rail_electric rail_fast ship container cable_car subway aircraft wheelchair scooter drone" speed="11.18" length="8.16" shape="211.73,342.14 213.03,344.14 214.24,345.28 215.49,346.42 216.85,348.37"/>
        <lane id=":10584037999_0_2" index="2" disallow="tram rail_urban rail rail_electric rail_fast ship container cable_car subway aircraft wheelchair scooter drone" speed="11.18" length="8.16" shape="208.88,343.60 210.19,345.62 211.42,346.79 212.67,347.94 214.06,349.93"/>
        <lane id=":10584037999_0_3" index="3" disallow="tram rail_urban rail rail_electric rail_fast ship container cable_car subway aircraft wheelchair scooter drone" speed="11.18" length="8.16" shape="208.88,343.60 209.76,345.87 210.02,347.56 210.31,349.24 211.26,351.48"/>
    </edge>
    <edge id=":11766549306_0" function="internal">
        <lane id=":11766549306_0_0" index="0" disallow="tram rail_urban rail rail_electric rail_fast ship container cable_car subway aircraft wheelchair scooter drone" speed="11.18" length="8.21" shape="341.61,572.42 342.97,574.41 344.22,575.56 345.46,576.71 346.82,578.70"/>
        <lane id=":11766549306_0_1" index="1" disallow="tram rail_urban rail rail_electric rail_fast ship container cable_car subway aircraft wheelchair scooter drone" speed="11.18" length="8.21" shape="338.80,573.94 340.16,575.93 341.40,577.08 342.65,578.23 344.01,580.22"/>
        <lane id=":11766549306_0_2" index="2" disallow="tram rail_urban rail rail_electric rail_fast ship container cable_car subway aircraft wheelchair scooter drone" speed="11.18" length="8.21" shape="335.98,575.46 337.34,577.45 338.59,578.60 339.83,579.75 341.19,581.74"/>
        <lane id=":11766549306_0_3" index="3" disallow="tram rail_urban rail rail_electric rail_fast ship container cable_car subway aircraft wheelchair scooter drone" speed="11.18" length="8.21" shape="333.17,576.98 334.53,578.97 335.77,580.12 337.02,581.27 338.38,583.26"/>
        <lane id=":11766549306_0_4" index="4" disallow="tram rail_urban rail rail_electric rail_fast ship container cable_car subway aircraft wheelchair scooter drone" speed="11.18" length="8.21" shape="333.17,576.98 334.09,579.21 334.36,580.88 334.64,582.56 335.56,584.78"/>
    </edge>
    <edge id=":11766549307_0" function="internal">
        <lane id=":11766549307_0_0" index="0" disallow="tram rail_urban rail rail_electric rail_fast ship container cable_car subway aircraft wheelchair scooter drone" speed="11.18" length="9.46" shape="416.71,721.64 418.84,723.48 421.40,723.59 423.97,723.73 426.14,725.63"/>
        <lane id=":11766549307_0_1" index="1" disallow="tram rail_urban rail rail_electric rail_fast ship container cable_car subway aircraft wheelchair scooter drone" speed="11.18" length="9.46" shape="416.71,721.64 418.32,723.56 420.02,724.40 421.71,725.23 423.32,727.15"/>
        <lane id=":11766549307_0_2" index="2" disallow="tram rail_urban rail rail_electric rail_fast ship container cable_car subway aircraft wheelchair scooter drone" speed="11.18" length="9.46" shape="416.71,721.64 420.51,728.67"/>
        <lane id=":11766549307_0_3" index="3" disallow="tram rail_urban rail rail_electric rail_fast ship container cable_car subway aircraft wheelchair scooter drone" speed="11.18" length="9.46" shape="416.71,721.64 417.44,724.04 417.20,725.92 416.96,727.79 417.69,730.20"/>
        <lane id=":11766549307_0_4" index="4" disallow="tram rail_urban rail rail_electric rail_fast ship container cable_car subway aircraft wheelchair scooter drone" speed="11.18" length="9.46" shape="416.71,721.64 417.08,724.43 415.77,726.64 414.47,728.86 414.88,731.72"/>
    </edge>
    <edge id=":11766549308_0" function="internal">
        <lane id=":11766549308_0_0" index="0" disallow="tram rail_urban rail rail_electric rail_fast ship container cable_car subway aircraft wheelchair scooter drone" speed="11.18" length="8.21" shape="491.12,849.95 492.48,851.94 493.72,853.09 494.97,854.24 496.33,856.23"/>
        <lane id=":11766549308_0_1" index="1" disallow="tram rail_urban rail rail_electric rail_fast ship container cable_car subway aircraft wheelchair scooter drone" speed="11.18" length="8.21" shape="488.31,851.46 489.66,853.46 490.91,854.60 492.15,855.75 493.51,857.75"/>
        <lane id=":11766549308_0_2" index="2" disallow="tram rail_urban rail rail_electric rail_fast ship container cable_car subway aircraft wheelchair scooter drone" speed="11.18" length="8.21" shape="485.49,852.98 486.85,854.97 488.09,856.12 489.34,857.27 490.69,859.26"/>
        <lane id=":11766549308_0_3" index="3" disallow="tram rail_urban rail rail_electric rail_fast ship container cable_car subway aircraft wheelchair scooter drone" speed="11.18" length="8.21" shape="482.67,854.50 484.03,856.49 485.27,857.64 486.52,858.79 487.88,860.78"/>
        <lane id=":11766549308_0_4" index="4" disallow="tram rail_urban rail rail_electric rail_fast ship container cable_car subway aircraft wheelchair scooter drone" speed="11.18" length="8.21" shape="482.67,854.50 483.59,856.73 483.87,858.40 484.14,860.07 485.06,862.30"/>
    </edge>
    <edge id=":11766549309_0" function="internal">
        <lane id=":11766549309_0_0" index="0" disallow="tram rail_urban rail rail_electric rail_fast ship container cable_car subway aircraft wheelchair scooter drone" speed="11.18" length="8.67" shape="556.85,971.91 558.46,973.84 560.16,974.67 561.86,975.50 563.47,977.43"/>
        <lane id=":11766549309_0_1" index="1" disallow="tram rail_urban rail rail_electric rail_fast ship container cable_car subway aircraft wheelchair scooter drone" speed="11.18" length="8.67" shape="554.04,973.43 555.64,975.36 557.34,976.19 559.04,977.02 560.65,978.95"/>
        <lane id=":11766549309_0_2" index="2" disallow="tram rail_urban rail rail_electric rail_fast ship container cable_car subway aircraft wheelchair scooter drone" speed="11.18" length="8.67" shape="551.22,974.95 552.83,976.88 554.53,977.71 556.23,978.54 557.84,980.47"/>
        <lane id=":11766549309_0_3" index="3" disallow="tram rail_urban rail rail_electric rail_fast ship container cable_car subway aircraft wheelchair scooter drone" speed="11.18" length="8.67" shape="548.40,976.47 550.01,978.40 551.71,979.23 553.41,980.06 555.02,981.99"/>
        <lane id=":11766549309_0_4" index="4" disallow="tram rail_urban rail rail_electric rail_fast ship container cable_car subway aircraft wheelchair scooter drone" speed="11.18" length="8.67" shape="548.40,976.47 552.21,983.51"/>
        <lane id=":11766549309_0_5" index="5" disallow="tram rail_urban rail rail_electric rail_fast ship container cable_car subway aircraft wheelchair scooter drone" speed="11.18" length="8.67" shape="548.40,976.47 549.13,978.88 548.90,980.75 548.66,982.63 549.39,985.03"/>
    </edge>
    <edge id=":12179564373_0" function="internal">
        <lane id=":12179564373_0_0" index="0" disallow="tram rail_urban rail rail_electric rail_fast ship container cable_car subway aircraft wheelchair scooter drone" speed="3.65" length="4.67" shape="5.59,41.86 4.54,42.84 3.67,43.05 2.98,42.48 2.48,41.13"/>
    </edge>
    <edge id=":12181309647_0" function="internal">
        <lane id=":12181309647_0_0" index="0" disallow="tram rail_urban rail rail_electric rail_fast ship container cable_car subway aircraft wheelchair scooter drone" speed="11.18" length="3.00" width="5.00" shape="961.42,536.09 964.06,534.66"/>
        <lane id=":12181309647_0_1" index="1" disallow="tram rail_urban rail rail_electric rail_fast ship container cable_car subway aircraft wheelchair scooter drone" speed="11.18" length="3.00" width="5.00" shape="963.79,540.49 966.44,539.07"/>
    </edge>
    <edge id=":12181309690_0" function="internal">
        <lane id=":12181309690_0_0" index="0" disallow="tram rail_urban rail rail_electric rail_fast ship container cable_car subway aircraft wheelchair scooter drone" speed="11.18" length="3.00" width="4.50" shape="1085.76,560.10 1083.11,561.51"/>
        <lane id=":12181309690_0_1" index="1" disallow="tram rail_urban rail rail_electric rail_fast ship container cable_car subway aircraft wheelchair scooter drone" speed="11.18" length="3.00" width="4.50" shape="1083.64,556.12 1081.00,557.54"/>
    </edge>
    <edge id=":12181339172_0" function="internal">
        <lane id=":12181339172_0_0" index="0" disallow="tram rail_urban rail rail_electric rail_fast ship container cable_car subway aircraft wheelchair scooter drone" speed="11.18" length="8.21" shape="1110.33,686.57 1111.83,688.46 1113.15,689.52 1114.47,690.58 1115.97,692.47"/>
        <lane id=":12181339172_0_1" index="1" disallow="tram rail_urban rail rail_electric rail_fast ship container cable_car subway aircraft wheelchair scooter drone" speed="11.18" length="8.21" shape="1107.63,688.29 1109.12,690.18 1110.45,691.24 1111.77,692.29 1113.27,694.18"/>
        <lane id=":12181339172_0_2" index="2" disallow="tram rail_urban rail rail_electric rail_fast ship container cable_car subway aircraft wheelchair scooter drone" speed="11.18" length="8.21" shape="1107.63,688.29 1108.70,690.45 1109.10,692.10 1109.49,693.74 1110.57,695.90"/>
    </edge>
    <edge id=":12181339184_0" function="internal">
        <lane id=":12181339184_0_0" index="0" disallow="tram rail_urban rail rail_electric rail_fast ship container cable_car subway aircraft wheelchair scooter drone" speed="11.18" length="8.21" shape="1333.84,971.83 1331.85,973.19 1330.70,974.43 1329.55,975.68 1327.55,977.03"/>
        <lane id=":12181339184_0_1" index="1" disallow="tram rail_urban rail rail_electric rail_fast ship container cable_car subway aircraft wheelchair scooter drone" speed="11.18" length="8.21" shape="1333.84,971.83 1331.61,972.75 1329.94,973.02 1328.27,973.30 1326.04,974.21"/>
    </edge>
    <edge id=":12181379215_0" function="internal">
        <lane id=":12181379215_0_0" index="0" disallow="tram rail_urban rail rail_electric rail_fast ship container cable_car subway aircraft wheelchair scooter drone" speed="11.18" length="8.21" shape="1454.49,907.45 1452.50,908.81 1451.36,910.06 1450.21,911.30 1448.22,912.66"/>
        <lane id=":12181379215_0_1" index="1" disallow="tram rail_urban rail rail_electric rail_fast ship container cable_car subway aircraft wheelchair scooter drone" speed="11.18" length="8.21" shape="1454.49,907.45 1452.27,908.37 1450.60,908.65 1448.93,908.93 1446.70,909.84"/>
    </edge>
    <edge id=":12183286719_0" function="internal">
        <lane id=":12183286719_0_0" index="0" disallow="tram rail_urban rail rail_electric rail_fast ship container cable_car subway aircraft wheelchair scooter drone" speed="3.65" length="4.67" shape="1095.83,22.28 1095.96,20.84 1096.47,20.10 1097.37,20.07 1098.64,20.74"/>
    </edge>
    <edge id=":13205862054_0" function="internal">
        <lane id=":13205862054_0_0" index="0" disallow="tram rail_urban rail rail_electric rail_fast ship container cable_car subway aircraft wheelchair scooter drone" speed="19.48" length="11.29" shape="1401.98,139.35 1396.58,129.38"/>
        <lane id=":13205862054_0_1" index="1" disallow="tram rail_urban rail rail_electric rail_fast ship container cable_car subway aircraft wheelchair scooter drone" speed="19.48" length="11.29" shape="1404.78,137.82 1399.40,127.87"/>
        <lane id=":13205862054_0_2" index="2" disallow="tram rail_urban rail rail_electric rail_fast ship container cable_car subway aircraft wheelchair scooter drone" speed="19.48" length="11.29" shape="1407.59,136.28 1402.22,126.36"/>
        <lane id=":13205862054_0_3" index="3" disallow="tram rail_urban rail rail_electric rail_fast ship container cable_car subway aircraft wheelchair scooter drone" speed="19.48" length="11.29" shape="1410.40,134.74 1405.04,124.85"/>
    </edge>
    <edge id=":13205862054_4" function="internal">
        <lane id=":13205862054_4_0" index="0" disallow="tram rail_urban rail rail_electric rail_fast ship container cable_car subway aircraft wheelchair scooter drone" speed="6.55" length="9.13" shape="1410.40,134.74 1409.47,132.34 1409.50,130.25 1410.48,128.46 1412.40,126.98"/>
    </edge>
    <edge id=":13205862054_5" function="internal">
        <lane id=":13205862054_5_0" index="0" disallow="tram rail_urban rail rail_electric rail_fast ship container cable_car subway aircraft wheelchair scooter drone" speed="6.68" length="9.25" shape="1394.62,137.33 1396.51,135.79 1397.47,133.95 1397.49,131.81 1396.58,129.38"/>
        <lane id=":13205862054_5_1" index="1" disallow="tram rail_urban rail rail_electric rail_fast ship container cable_car subway aircraft wheelchair scooter drone" speed="7.47" length="11.84" shape="1394.62,137.33 1397.72,135.08 1399.55,132.76 1400.11,130.35 1399.40,127.87"/>
    </edge>
    <edge id=":13205862054_7" function="internal">
        <lane id=":13205862054_7_0" index="0" disallow="tram rail_urban rail rail_electric rail_fast ship container cable_car subway aircraft wheelchair scooter drone" speed="11.18" length="20.57" shape="1394.62,137.33 1412.40,126.98"/>
    </edge>
    <edge id=":13205862056_0" function="internal">
        <lane id=":13205862056_0_0" index="0" disallow="tram rail_urban rail rail_electric rail_fast ship container cable_car subway aircraft wheelchair scooter drone" speed="6.52" length="9.05" shape="1366.66,73.98 1365.18,71.98 1363.42,70.93 1361.38,70.83 1359.06,71.67"/>
    </edge>
    <edge id=":13205862056_1" function="internal">
        <lane id=":13205862056_1_0" index="0" disallow="tram rail_urban rail rail_electric rail_fast ship container cable_car subway aircraft wheelchair scooter drone" speed="11.18" length="11.20" shape="1366.66,73.98 1361.33,64.11"/>
        <lane id=":13205862056_1_1" index="1" disallow="tram rail_urban rail rail_electric rail_fast ship container cable_car subway aircraft wheelchair scooter drone" speed="11.18" length="11.20" shape="1369.48,72.46 1364.15,62.60"/>
        <lane id=":13205862056_1_2" index="2" disallow="tram rail_urban rail rail_electric rail_fast ship container cable_car subway aircraft wheelchair scooter drone" speed="11.18" length="11.20" shape="1372.29,70.93 1366.97,61.08"/>
        <lane id=":13205862056_1_3" index="3" disallow="tram rail_urban rail rail_electric rail_fast ship container cable_car subway aircraft wheelchair scooter drone" speed="11.18" length="11.20" shape="1375.10,69.41 1369.79,59.56"/>
    </edge>
    <edge id=":13205862056_5" function="internal">
        <lane id=":13205862056_5_0" index="0" disallow="tram rail_urban rail rail_electric rail_fast ship container cable_car subway aircraft wheelchair scooter drone" speed="11.18" length="20.78" shape="1377.38,61.87 1359.06,71.67"/>
    </edge>
    <edge id=":13205862056_6" function="internal">
        <lane id=":13205862056_6_0" index="0" disallow="tram rail_urban rail rail_electric rail_fast ship container cable_car subway aircraft wheelchair scooter drone" speed="7.35" length="11.70" shape="1377.38,61.87 1373.81,63.35 1370.88,63.71 1368.60,62.96 1366.97,61.08"/>
        <lane id=":13205862056_6_1" index="1" disallow="tram rail_urban rail rail_electric rail_fast ship container cable_car subway aircraft wheelchair scooter drone" speed="6.53" length="9.03" shape="1377.38,61.87 1375.05,62.70 1373.01,62.59 1371.25,61.55 1369.79,59.56"/>
    </edge>
    <edge id=":1692450029_0" function="internal">
        <lane id=":1692450029_0_0" index="0" disallow="tram rail_urban rail rail_electric rail_fast ship container cable_car subway aircraft wheelchair scooter drone" speed="7.31" length="11.42" width="9.00" shape="1509.32,338.71 1507.29,335.66 1505.12,333.84 1502.81,333.25 1500.35,333.89"/>
    </edge>
    <edge id=":1692450029_1" function="internal">
        <lane id=":1692450029_1_0" index="0" disallow="tram rail_urban rail rail_electric rail_fast ship container cable_car subway aircraft wheelchair scooter drone" speed="11.18" length="16.72" shape="1509.32,338.71 1501.39,323.98"/>
        <lane id=":1692450029_1_1" index="1" disallow="tram rail_urban rail rail_electric rail_fast ship container cable_car subway aircraft wheelchair scooter drone" speed="11.18" length="16.72" shape="1512.14,337.19 1504.21,322.46"/>
        <lane id=":1692450029_1_2" index="2" disallow="tram rail_urban rail rail_electric rail_fast ship container cable_car subway aircraft wheelchair scooter drone" speed="11.18" length="16.72" shape="1514.95,335.66 1507.02,320.95"/>
        <lane id=":1692450029_1_3" index="3" disallow="tram rail_urban rail rail_electric rail_fast ship container cable_car subway aircraft wheelchair scooter drone" speed="11.18" length="16.72" shape="1517.76,334.14 1509.84,319.43"/>
    </edge>
    <edge id=":1692450029_5" function="internal">
        <lane id=":1692450029_5_0" index="0" disallow="tram rail_urban rail rail_electric rail_fast ship container cable_car subway aircraft wheelchair scooter drone" speed="11.18" length="20.72" width="9.00" shape="1518.87,324.59 1500.35,333.89"/>
    </edge>
    <edge id=":1692450029_6" function="internal">
        <lane id=":1692450029_6_0" index="0" disallow="tram rail_urban rail rail_electric rail_fast ship container cable_car subway aircraft wheelchair scooter drone" speed="8.04" length="14.05" shape="1518.87,324.59 1515.21,325.84 1512.02,325.65 1509.29,324.02 1507.02,320.95"/>
        <lane id=":1692450029_6_1" index="1" disallow="tram rail_urban rail rail_electric rail_fast ship container cable_car subway aircraft wheelchair scooter drone" speed="7.36" length="11.63" shape="1518.87,324.59 1516.46,325.20 1514.15,324.54 1511.95,322.62 1509.84,319.43"/>
    </edge>
    <edge id=":2302133933_0" function="internal">
        <lane id=":2302133933_0_0" index="0" disallow="tram rail_urban rail rail_electric rail_fast ship container cable_car subway aircraft wheelchair scooter drone" speed="6.52" length="9.03" shape="1337.05,798.65 1335.57,796.68 1333.81,795.65 1331.77,795.57 1329.44,796.43"/>
    </edge>
    <edge id=":2302133933_1" function="internal">
        <lane id=":2302133933_1_0" index="0" disallow="tram rail_urban rail rail_electric rail_fast ship container cable_car subway aircraft wheelchair scooter drone" speed="11.18" length="11.21" shape="1337.05,798.65 1331.64,788.87"/>
        <lane id=":2302133933_1_1" index="1" disallow="tram rail_urban rail rail_electric rail_fast ship container cable_car subway aircraft wheelchair scooter drone" speed="11.18" length="11.21" shape="1339.85,797.12 1334.43,787.31"/>
        <lane id=":2302133933_1_2" index="2" disallow="tram rail_urban rail rail_electric rail_fast ship container cable_car subway aircraft wheelchair scooter drone" speed="11.18" length="11.21" shape="1342.66,795.59 1337.23,785.75"/>
    </edge>
    <edge id=":246539423_0" function="internal">
        <lane id=":246539423_0_0" index="0" disallow="tram rail_urban rail rail_electric rail_fast ship container cable_car subway aircraft wheelchair scooter drone" speed="11.18" length="0.30" width="8.50" shape="1245.31,385.89 1245.57,385.75"/>
    </edge>
    <edge id=":390519635_0" function="internal">
        <lane id=":390519635_0_0" index="0" disallow="tram rail_urban rail rail_electric rail_fast ship container cable_car subway aircraft wheelchair scooter drone" speed="7.44" length="11.83" width="9.00" shape="1317.33,442.74 1315.28,439.72 1313.01,438.00 1310.53,437.56 1307.85,438.41"/>
    </edge>
    <edge id=":390519635_1" function="internal">
        <lane id=":390519635_1_0" index="0" disallow="tram rail_urban rail rail_electric rail_fast ship container cable_car subway aircraft wheelchair scooter drone" speed="11.18" length="17.87" width="4.20" shape="1317.33,442.74 1308.93,426.97"/>
        <lane id=":390519635_1_1" index="1" disallow="tram rail_urban rail rail_electric rail_fast ship container cable_car subway aircraft wheelchair scooter drone" speed="11.18" length="17.87" width="4.20" shape="1321.04,440.77 1312.64,424.99"/>
    </edge>
    <edge id=":390519635_3" function="internal">
        <lane id=":390519635_3_0" index="0" disallow="tram rail_urban rail rail_electric rail_fast ship container cable_car subway aircraft wheelchair scooter drone" speed="4.18" length="2.14" width="4.20" shape="1321.04,440.77 1321.23,438.89 1321.37,438.69"/>
    </edge>
    <edge id=":390519635_12" function="internal">
        <lane id=":390519635_12_0" index="0" disallow="tram rail_urban rail rail_electric rail_fast ship container cable_car subway aircraft wheelchair scooter drone" speed="4.18" length="4.00" width="4.20" shape="1321.37,438.69 1321.91,437.93 1323.08,437.90 1324.75,438.80"/>
    </edge>
    <edge id=":390519635_4" function="internal">
        <lane id=":390519635_4_0" index="0" disallow="tram rail_urban rail rail_electric rail_fast ship container cable_car subway aircraft wheelchair scooter drone" speed="8.13" length="12.74" width="4.20" shape="1333.25,423.59 1331.12,425.41 1330.23,427.89 1330.58,431.04 1332.17,434.86"/>
    </edge>
    <edge id=":390519635_5" function="internal">
        <lane id=":390519635_5_0" index="0" disallow="tram rail_urban rail rail_electric rail_fast ship container cable_car subway aircraft wheelchair scooter drone" speed="11.18" length="29.41" width="9.00" shape="1333.25,423.59 1307.85,438.41"/>
    </edge>
    <edge id=":390519635_6" function="internal">
        <lane id=":390519635_6_0" index="0" disallow="tram rail_urban rail rail_electric rail_fast ship container cable_car subway aircraft wheelchair scooter drone" speed="10.36" length="22.71" width="4.20" shape="1333.25,423.59 1325.74,427.04 1319.80,428.43 1315.44,427.74 1312.64,424.99"/>
    </edge>
    <edge id=":390519635_7" function="internal">
        <lane id=":390519635_7_0" index="0" disallow="tram rail_urban rail rail_electric rail_fast ship container cable_car subway aircraft wheelchair scooter drone" speed="11.18" length="17.89" width="4.20" shape="1323.75,419.06 1332.17,434.86"/>
        <lane id=":390519635_7_1" index="1" disallow="tram rail_urban rail rail_electric rail_fast ship container cable_car subway aircraft wheelchair scooter drone" speed="11.18" length="17.89" width="4.20" shape="1320.05,421.04 1328.46,436.83"/>
        <lane id=":390519635_7_2" index="2" disallow="tram rail_urban rail rail_electric rail_fast ship container cable_car subway aircraft wheelchair scooter drone" speed="11.18" length="17.89" width="4.20" shape="1316.34,423.01 1324.75,438.80"/>
    </edge>
    <edge id=":390519635_10" function="internal">
        <lane id=":390519635_10_0" index="0" disallow="tram rail_urban rail rail_electric rail_fast ship container cable_car subway aircraft wheelchair scooter drone" speed="9.44" length="4.55" width="9.00" shape="1316.34,423.01 1317.49,427.14 1317.42,427.40"/>
    </edge>
    <edge id=":390519635_11" function="internal">
        <lane id=":390519635_11_0" index="0" disallow="tram rail_urban rail rail_electric rail_fast ship container cable_car subway aircraft wheelchair scooter drone" speed="4.18" length="2.14" width="4.20" shape="1316.34,423.01 1316.16,424.90 1316.02,425.10"/>
    </edge>
    <edge id=":390519635_13" function="internal">
        <lane id=":390519635_13_0" index="0" disallow="tram rail_urban rail rail_electric rail_fast ship container cable_car subway aircraft wheelchair scooter drone" speed="9.44" length="15.22" width="9.00" shape="1317.42,427.40 1316.46,431.08 1313.25,434.83 1307.85,438.41"/>
    </edge>
    <edge id=":390519635_14" function="internal">
        <lane id=":390519635_14_0" index="0" disallow="tram rail_urban rail rail_electric rail_fast ship container cable_car subway aircraft wheelchair scooter drone" speed="4.18" length="3.99" width="4.20" shape="1316.02,425.10 1315.48,425.86 1314.31,425.89 1312.64,424.99"/>
    </edge>
    <edge id=":4138911201_0" function="internal">
        <lane id=":4138911201_0_0" index="0" disallow="tram rail_urban rail rail_electric rail_fast ship container cable_car subway aircraft wheelchair scooter drone" speed="6.49" length="9.03" shape="1482.60,713.76 1480.59,715.21 1479.54,716.96 1479.43,718.99 1480.27,721.32"/>
    </edge>
    <edge id=":4138911201_1" function="internal">
        <lane id=":4138911201_1_0" index="0" disallow="tram rail_urban rail rail_electric rail_fast ship container cable_car subway aircraft wheelchair scooter drone" speed="11.18" length="11.20" shape="1475.01,711.44 1480.27,721.32"/>
        <lane id=":4138911201_1_1" index="1" disallow="tram rail_urban rail rail_electric rail_fast ship container cable_car subway aircraft wheelchair scooter drone" speed="11.18" length="11.20" shape="1472.18,712.94 1477.45,722.83"/>
    </edge>
    <edge id=":4205565512_0" function="internal">
        <lane id=":4205565512_0_0" index="0" disallow="tram rail_urban rail rail_electric rail_fast ship container cable_car subway aircraft wheelchair scooter drone" speed="11.18" length="7.94" shape="1078.50,751.92 1071.55,755.73"/>
        <lane id=":4205565512_0_1" index="1" disallow="tram rail_urban rail rail_electric rail_fast ship container cable_car subway aircraft wheelchair scooter drone" speed="11.18" length="7.94" shape="1076.98,749.10 1070.00,752.93"/>
    </edge>
    <edge id=":4205565512_2" function="internal">
        <lane id=":4205565512_2_0" index="0" disallow="tram rail_urban rail rail_electric rail_fast ship container cable_car subway aircraft wheelchair scooter drone" speed="11.18" length="8.56" shape="1066.89,747.34 1068.82,745.69 1069.65,743.98 1070.48,742.27 1072.42,740.66"/>
        <lane id=":4205565512_2_1" index="1" disallow="tram rail_urban rail rail_electric rail_fast ship container cable_car subway aircraft wheelchair scooter drone" speed="11.18" length="8.56" shape="1068.44,750.13 1070.36,748.50 1071.18,746.79 1072.01,745.08 1073.94,743.47"/>
        <lane id=":4205565512_2_2" index="2" disallow="tram rail_urban rail rail_electric rail_fast ship container cable_car subway aircraft wheelchair scooter drone" speed="11.18" length="8.56" shape="1068.44,750.13 1075.46,746.29"/>
    </edge>
    <edge id=":42427369_0" function="internal">
        <lane id=":42427369_0_0" index="0" disallow="tram rail_urban rail rail_electric rail_fast ship container cable_car subway aircraft wheelchair scooter drone" speed="11.18" length="16.44" shape="736.37,669.17 728.54,654.70"/>