<?xml version="1.0" encoding="UTF-8"?>

<!-- generated on 2025-12-13 23:52:48 by Eclipse SUMO netconvert Version 1.20.0
<configuration xmlns:xsi="http://www.w3.org/2001/XMLSchema-instance" xsi:noNamespaceSchemaLocation="http://sumo.dlr.de/xsd/netconvertConfiguration.xsd">

    <input>
        <type-files value="/opt/homebrew/Cellar/sumo/1.20.0/share/sumo/tools/../data/typemap/osmNetconvert.typ.xml,/opt/homebrew/Cellar/sumo/1.20.0/share/sumo/tools/../data/typemap/osmNetconvertAerialway.typ.xml"/>
        <osm-files value="osm_bbox.osm.xml.gz"/>
    </input>

    <output>
        <output-file value="osm.net.xml.gz"/>
        <output.street-names value="true"/>
        <output.original-names value="true"/>
        <ptstop-output value="osm_stops.add.xml"/>
        <ptline-output value="osm_ptlines.xml"/>
    </output>

    <projection>
        <proj.utm value="true"/>
    </projection>

    <processing>
        <geometry.remove value="true"/>
        <roundabouts.guess value="true"/>
    </processing>

    <tls_building>
        <tls.discard-simple value="true"/>
        <tls.join value="true"/>
        <tls.guess-signals value="true"/>
        <tls.default-type value="actuated"/>
    </tls_building>

    <ramp_guessing>
        <ramps.guess value="true"/>
    </ramp_guessing>

    <edge_removal>
        <keep-edges.by-vclass value="passenger,bus,tram,rail_urban,subway,cable_car,rail"/>
    </edge_removal>

    <junctions>
        <junctions.join value="true"/>
        <junctions.corner-detail value="5"/>
    </junctions>

    <railway>
        <railway.topology.repair value="true"/>
    </railway>

</configuration>
-->

<additional xmlns:xsi="http://www.w3.org/2001/XMLSchema-instance" xsi:noNamespaceSchemaLocation="http://sumo.dlr.de/xsd/additional_file.xsd">
    <busStop id="-11040029967" name="East 14th Street &amp; 4th Avenue" lane="-195743164#2_0" startPos="65.31" endPos="80.31" friendlyPos="true" lines="M14A-SBS"/>
    <busStop id="11040029965" name="West 14th Street &amp; 5th Avenue" lane="1080982434#0_0" startPos="24.60" endPos="39.60" friendlyPos="true"/>
    <busStop id="11040080991" name="East 14th Street &amp; Irving Place" lane="1080982440#0_0" startPos="73.71" endPos="88.71" friendlyPos="true"/>
    <busStop id="11040080992" name="East 14th Street &amp; University Place" lane="1080982433#0_0" startPos="28.97" endPos="43.97" friendlyPos="true"/>
    <busStop id="11040080994" name="West 14th Street &amp; 6th Avenue" lane="1080982435_0" startPos="22.05" endPos="37.05" friendlyPos="true"/>
    <busStop id="11040080995" name="West 14th Street &amp; 7th Avenue" lane="1080982437_0" startPos="20.61" endPos="35.61" friendlyPos="true" lines="M14A-SBS"/>
    <busStop id="11043134789" name="East 23rd Street &amp; Lexington Avenue" lane="1088320650#0_0" startPos="17.21" endPos="32.21" friendlyPos="true"/>
    <busStop id="11043321025" name="Madison Avenue &amp; East 25th Street" lane="5671393#3_0" startPos="48.20" endPos="63.20" friendlyPos="true"/>
    <busStop id="2114017599" name="West 23rd Street &amp; 6th Avenue" lane="1088320656_0" startPos="90.40" endPos="105.40" friendlyPos="true"/>
    <busStop id="4762558055" name="Broadway/East 14th Street" lane="421825692#0_0" startPos="7.61" endPos="22.61" friendlyPos="true"/>
    <busStop id="4762558057" name="Broadway/East 13th Street" lane="421825692#0_0" startPos="25.46" endPos="40.46" friendlyPos="true"/>
    <busStop id="4763900906" name="East 23rd Street &amp; Madison Avenue" lane="1088320654#0_0" startPos="59.45" endPos="74.45" friendlyPos="true"/>
    <busStop id="4763900908" name="East 23rd Street &amp; Broadway" lane="1088320654#0_0" startPos="45.03" endPos="60.03" friendlyPos="true" lines="X68"/>
    <busStop id="4763900910" name="East 23rd Street &amp; Broadway" lane="1088320654#0_0" startPos="34.76" endPos="49.76" friendlyPos="true" lines="X68"/>
    <busStop id="4763900914" name="East 23rd Street &amp; Broadway" lane="1088320654#0_0" startPos="31.97" endPos="46.97" friendlyPos="true"/>
    <busStop id="4763900915" name="East 23rd Street &amp; Broadway" lane="1088320654#0_0" startPos="18.67" endPos="33.67" friendlyPos="true"/>
    <busStop id="4983147337" name="14th Street–Union Square" lane="817018813_0" startPos="26.33" endPos="226.33" friendlyPos="true" lines="5 4">
        <access lane="420598310#0_0" pos="54.55" length="2.51" friendlyPos="1"/>
        <access lane="420598402#0_0" pos="24.46" length="36.89" friendlyPos="1"/>
        <access lane="451808492#5_0" pos="135.20" length="51.41" friendlyPos="1"/>
        <access lane="5670522#0_0" pos="0.00" length="60.18" friendlyPos="1"/>
        <access lane="923090985#3_0" pos="72.89" length="64.63" friendlyPos="1"/>
    </busStop>
    <busStop id="4983147359" name="14th Street–Union Square" lane="817013583_0" startPos="586.47" endPos="786.47" friendlyPos="true" lines="5 4">
        <access lane="-195743164#2_0" pos="88.88" length="26.21" friendlyPos="1"/>
        <access lane="-420522695#3_0" pos="0.00" length="25.04" friendlyPos="1"/>
        <access lane="1080982440#0_0" pos="0.00" length="18.59" friendlyPos="1"/>
        <access lane="1315848397_0" pos="46.86" length="9.59" friendlyPos="1"/>
        <access lane="420522695#0_0" pos="63.99" length="21.91" friendlyPos="1"/>
    </busStop>
    <busStop id="4983147377" name="14th Street–Union Square" lane="813742875_0" startPos="45.37" endPos="245.37" friendlyPos="true" lines="6 &lt;6&gt; 4">
        <access lane="420598310#0_0" pos="75.97" length="4.08" friendlyPos="1"/>
        <access lane="420598402#0_0" pos="6.90" length="27.08" friendlyPos="1"/>
        <access lane="451808492#5_0" pos="137.99" length="19.92" friendlyPos="1"/>
        <access lane="5670522#0_0" pos="0.00" length="28.36" friendlyPos="1"/>
        <access lane="923090985#3_0" pos="72.89" length="36.28" friendlyPos="1"/>
    </busStop>
    <busStop id="4983147403" name="14th Street–Union Square" lane="817013581_0" startPos="914.89" endPos="1114.89" friendlyPos="true" lines="6 &lt;6&gt; 4">
        <access lane="-420522695#3_0" pos="0.00" length="16.53" friendlyPos="1"/>
        <access lane="1080982440#0_0" pos="0.00" length="27.08" friendlyPos="1"/>
        <access lane="1315848397_0" pos="46.86" length="20.38" friendlyPos="1"/>
        <access lane="420522695#0_0" pos="63.99" length="12.17" friendlyPos="1"/>
        <access lane="420598310#0_0" pos="0.00" length="27.07" friendlyPos="1"/>
    </busStop>
    <busStop id="4983147855" name="14th Street–Union Square" lane="817381415_0" startPos="717.55" endPos="917.55" friendlyPos="true" lines="N Q W R">
        <access lane="-420522695#3_0" pos="63.98" length="44.11" friendlyPos="1"/>
        <access lane="-666752576#3_0" pos="12.07" length="15.57" friendlyPos="1"/>
        <access lane="420598402#0_0" pos="79.06" length="29.90" friendlyPos="1"/>
        <access lane="421825692#0_0" pos="0.00" length="39.42" friendlyPos="1"/>
        <access lane="666752576#0_0" pos="70.16" length="20.37" friendlyPos="1"/>
    </busStop>
    <busStop id="5106260204" name="18th Street" lane="808965710#1_0" startPos="175.16" endPos="375.16" friendlyPos="true" lines="1 2">
        <access lane="34080062#0_0" pos="0.46" length="96.14" friendlyPos="1"/>
        <access lane="5672450#3_0" pos="253.59" length="16.08" friendlyPos="1"/>
        <access lane="852992100#0_0" pos="0.00" length="98.44" friendlyPos="1"/>
        <access lane="852992111#0_0" pos="59.01" length="15.01" friendlyPos="1"/>
        <access lane="852992111#3_0" pos="0.00" length="28.49" friendlyPos="1"/>
    </busStop>
    <busStop id="5106260206" name="14th Street" lane="808965710#0_0" startPos="0.00" endPos="54.99" friendlyPos="true" lines="1 2">
        <access lane="-1080982437_0" pos="33.73" length="1.07" friendlyPos="1"/>
        <access lane="-196117073_0" pos="149.89" length="62.54" friendlyPos="1"/>
        <access lane="1080982437_0" pos="2.18" length="8.53" friendlyPos="1"/>
        <access lane="196117073_0" pos="0.00" length="62.63" friendlyPos="1"/>
        <access lane="852992099_0" pos="39.60" length="23.15" friendlyPos="1"/>
    </busStop>
    <busStop id="5106260207" name="14th Street" lane="808965711#0_0" startPos="0.00" endPos="34.29" friendlyPos="true" lines="3 2">
        <access lane="-1080982437_0" pos="35.90" length="8.57" friendlyPos="1"/>
        <access lane="-196117073_0" pos="149.89" length="74.38" friendlyPos="1"/>
        <access lane="1080982437_0" pos="0.00" length="12.62" friendlyPos="1"/>
        <access lane="196117073_0" pos="0.00" length="74.46" friendlyPos="1"/>
        <access lane="852992099_0" pos="39.60" length="11.96" friendlyPos="1"/>
    </busStop>
    <busStop id="5155799272" lane="496978510_0" startPos="54.85" endPos="69.85" friendlyPos="true"/>
    <busStop id="5155816415" lane="451905565#3_0" startPos="12.70" endPos="27.70" friendlyPos="true"/>
    <busStop id="5243716991" lane="195743341#0_0" startPos="19.06" endPos="34.06" friendlyPos="true"/>
    <busStop id="5243716993" name="East 14th Street &amp; Union Square West" lane="1080982433#0_0" startPos="14.30" endPos="29.30" friendlyPos="true"/>
    <busStop id="5244228886" name="West 14th Street &amp; 6th Avenue" lane="1080982436_0" startPos="12.06" endPos="27.06" friendlyPos="true"/>
    <busStop id="5244228888" lane="497746843#2_0" startPos="20.11" endPos="35.11" friendlyPos="true"/>
    <busStop id="5266429277" lane="1088320648#0_0" startPos="135.11" endPos="150.11" friendlyPos="true"/>
    <busStop id="5266429278" lane="1088320650#0_0" startPos="14.67" endPos="29.67" friendlyPos="true"/>
    <busStop id="5266429279" name="East 23rd Street &amp; Lexington Avenue" lane="1088320652#0_0" startPos="16.25" endPos="31.25" friendlyPos="true" lines="X68"/>
    <busStop id="5266429280" lane="1088320652#0_0" startPos="77.28" endPos="92.28" friendlyPos="true"/>
    <busStop id="5266429281" lane="420519635#0_0" startPos="13.55" endPos="28.55" friendlyPos="true"/>
    <busStop id="5266429282" lane="420520113#0_0" startPos="46.36" endPos="61.36" friendlyPos="true"/>
    <busStop id="5266429283" lane="5670522#0_0" startPos="41.70" endPos="56.70" friendlyPos="true"/>
    <busStop id="5266429284" lane="5670522#0_0" startPos="49.76" endPos="64.76" friendlyPos="true"/>
    <busStop id="5266444850" lane="196116997#0_0" startPos="13.61" endPos="28.61" friendlyPos="true"/>
    <busStop id="5332358381" name="6th Avenue" lane="552261294_0" startPos="115.36" endPos="315.36" friendlyPos="true" lines="L">
        <access lane="-1080982435_0" pos="57.84" length="13.57" friendlyPos="1"/>
        <access lane="-5672434_0" pos="1.02" length="3.36" friendlyPos="1"/>
        <access lane="1080982435_0" pos="0.00" length="18.74" friendlyPos="1"/>
        <access lane="496979224#0_0" pos="44.89" length="109.39" friendlyPos="1"/>
        <access lane="5672434_0" pos="175.97" length="8.16" friendlyPos="1"/>
    </busStop>
    <busStop id="5336193667" name="6th Avenue" lane="808580928_0" startPos="758.19" endPos="958.19" friendlyPos="true">
        <access lane="-1080982436_0" pos="54.12" length="8.07" friendlyPos="1"/>
        <access lane="-196117073_0" pos="0.00" length="5.34" friendlyPos="1"/>
        <access lane="1080982436_0" pos="0.00" length="15.93" friendlyPos="1"/>
        <access lane="196117073_0" pos="149.73" length="9.51" friendlyPos="1"/>
        <access lane="496978510_0" pos="0.00" length="112.61" friendlyPos="1"/>
    </busStop>
    <busStop id="5404334152" name="9th Street" lane="591434572_0" startPos="0.00" endPos="200.00" friendlyPos="true" lines="JSQ–33 via HOB JSQ–33 HOB–33">
        <access lane="-492148705#1_0" pos="0.00" length="21.37" friendlyPos="1"/>
        <access lane="-5670087#2_0" pos="24.48" length="14.76" friendlyPos="1"/>
        <access lane="24264114#0_0" pos="21.37" length="6.59" friendlyPos="1"/>
        <access lane="492148705#0_0" pos="6.11" length="24.91" friendlyPos="1"/>
        <access lane="5670087#0_0" pos="0.00" length="19.55" friendlyPos="1"/>
    </busStop>
    <busStop id="5551785165" name="23rd Street" lane="813712317_0" startPos="0.00" endPos="200.00" friendlyPos="true" lines="JSQ–33 via HOB HOB–33 JSQ–33">
        <access lane="1266830892_0" pos="0.00" length="36.05" friendlyPos="1"/>
        <access lane="196117090#0_0" pos="62.03" length="43.57" friendlyPos="1"/>
        <access lane="196117090#2_0" pos="16.99" length="10.05" friendlyPos="1"/>
        <access lane="813970417_0" pos="2.93" length="36.16" friendlyPos="1"/>
        <access lane="846122853#0_0" pos="0.00" length="38.69" friendlyPos="1"/>
    </busStop>
    <busStop id="5551785167" name="23rd Street" lane="554387916_0" startPos="0.00" endPos="200.00" friendlyPos="true" lines="&lt;F&gt; M F">
        <access lane="1266830892_0" pos="0.00" length="81.21" friendlyPos="1"/>
        <access lane="196117090#0_0" pos="60.95" length="21.41" friendlyPos="1"/>
        <access lane="196117090#2_0" pos="0.00" length="28.31" friendlyPos="1"/>
        <access lane="813970417_0" pos="2.93" length="10.27" friendlyPos="1"/>
        <access lane="846122853#0_0" pos="0.00" length="31.44" friendlyPos="1"/>
    </busStop>
    <busStop id="6139477286" name="2nd Avenue &amp; East 23rd Street" lane="157014136#0_0" startPos="18.61" endPos="33.61" friendlyPos="true" lines="M15 M15-SBS"/>
    <busStop id="6943277291" name="14th Street" lane="554387916_0" startPos="501.67" endPos="701.67" friendlyPos="true" lines="&lt;F&gt; M F">
        <access lane="-1080982435_0" pos="0.00" length="37.23" friendlyPos="1"/>
        <access lane="-1080982436_0" pos="0.00" length="8.03" friendlyPos="1"/>
        <access lane="1080982435_0" pos="57.94" length="30.81" friendlyPos="1"/>
        <access lane="1080982436_0" pos="54.17" length="22.32" friendlyPos="1"/>
        <access lane="496978510_0" pos="0.00" length="21.50" friendlyPos="1"/>
    </busStop>
    <busStop id="7142969941" name="23rd Street" lane="813742875_0" startPos="756.58" endPos="956.58" friendlyPos="true" lines="6 &lt;6&gt; 4">
        <access lane="1049948413#0_0" pos="0.00" length="13.95" friendlyPos="1"/>
        <access lane="420519635#0_0" pos="66.84" length="6.34" friendlyPos="1"/>
        <access lane="464683336#0_0" pos="67.91" length="25.70" friendlyPos="1"/>
        <access lane="525768549#0_0" pos="0.00" length="14.15" friendlyPos="1"/>
        <access lane="525768550#0_0" pos="0.00" length="18.88" friendlyPos="1"/>
    </busStop>
    <busStop id="7509382447" name="14th Street" lane="813712317_0" startPos="645.12" endPos="845.12" friendlyPos="true" lines="JSQ–33 via HOB HOB–33 JSQ–33">
        <access lane="1135428602#0_0" pos="0.00" length="33.93" friendlyPos="1"/>
        <access lane="496979224#0_0" pos="0.00" length="73.84" friendlyPos="1"/>
        <access lane="497746843#2_0" pos="58.80" length="8.24" friendlyPos="1"/>
        <access lane="5669806#0_0" pos="294.94" length="29.65" friendlyPos="1"/>
        <access lane="646635889#0_0" pos="4.71" length="97.09" friendlyPos="1"/>
    </busStop>
    <busStop id="7509382448" name="14th Street" lane="591434572_0" startPos="358.77" endPos="558.77" friendlyPos="true" lines="JSQ–33 via HOB JSQ–33 HOB–33">
        <access lane="-1080982435_0" pos="0.00" length="40.04" friendlyPos="1"/>
        <access lane="-1080982436_0" pos="0.00" length="30.29" friendlyPos="1"/>
        <access lane="1080982435_0" pos="57.94" length="26.72" friendlyPos="1"/>
        <access lane="1080982436_0" pos="54.17" length="42.51" friendlyPos="1"/>
        <access lane="496978510_0" pos="10.10" length="4.45" friendlyPos="1"/>
    </busStop>
    <busStop id="7512663145" name="18th Street" lane="803142786_0" startPos="95.01" endPos="295.01" friendlyPos="true" lines="2 1">
        <access lane="194923795#1_0" pos="0.00" length="108.27" friendlyPos="1"/>
        <access lane="481403099#0_0" pos="253.49" length="21.04" friendlyPos="1"/>
        <access lane="852992102#0_0" pos="63.11" length="3.61" friendlyPos="1"/>
        <access lane="852992102#3_0" pos="0.00" length="14.18" friendlyPos="1"/>
        <access lane="852992108_0" pos="0.00" length="87.16" friendlyPos="1"/>
    </busStop>
    <busStop id="7535669386" name="14th Street" lane="554387911_0" startPos="514.30" endPos="714.30" friendlyPos="true" lines="&lt;F&gt; F M">
        <access lane="1266830886#0_0" pos="70.04" length="55.08" friendlyPos="1"/>
        <access lane="1266830886#2_0" pos="25.23" length="6.77" friendlyPos="1"/>
        <access lane="1266830887_0" pos="0.00" length="15.68" friendlyPos="1"/>
        <access lane="348477349#0_0" pos="0.00" length="46.28" friendlyPos="1"/>
        <access lane="496993763#0_0" pos="253.18" length="54.92" friendlyPos="1"/>
    </busStop>
    <busStop id="7618745565" name="Union Square" lane="552261294_0" startPos="605.99" endPos="805.99" friendlyPos="true" lines="L">
        <access lane="-420522695#3_0" pos="0.00" length="14.81" friendlyPos="1"/>
        <access lane="1080982440#0_0" pos="0.00" length="20.50" friendlyPos="1"/>
        <access lane="1315848397_0" pos="46.86" length="15.59" friendlyPos="1"/>
        <access lane="420522695#0_0" pos="63.99" length="12.08" friendlyPos="1"/>
        <access lane="420598310#0_0" pos="0.00" length="21.73" friendlyPos="1"/>
    </busStop>
    <busStop id="7618745568" name="Union Square" lane="808580928_0" startPos="216.34" endPos="416.34" friendlyPos="true">
        <access lane="-1080982433#1_0" pos="0.00" length="25.33" friendlyPos="1"/>
        <access lane="-666752576#3_0" pos="77.41" length="5.96" friendlyPos="1"/>
        <access lane="1080982433#0_0" pos="46.28" length="29.12" friendlyPos="1"/>
        <access lane="558008153#0_0" pos="0.00" length="29.50" friendlyPos="1"/>
        <access lane="666752576#0_0" pos="4.82" length="10.76" friendlyPos="1"/>
    </busStop>
    <busStop id="7630588806" name="28th Street" lane="817013581_0" startPos="0.00" endPos="200.00" friendlyPos="true" lines="6 &lt;6&gt; 4">
        <access lane="1316060557#0_0" pos="79.67" length="109.66" friendlyPos="1"/>
        <access lane="1316060558#0_0" pos="47.36" length="26.97" friendlyPos="1"/>
        <access lane="196117051#0_0" pos="67.99" length="22.50" friendlyPos="1"/>
        <access lane="464683339#2_0" pos="0.00" length="7.86" friendlyPos="1"/>
        <access lane="5672487#1_0" pos="0.00" length="11.67" friendlyPos="1"/>
    </busStop>
    <busStop id="7630588808" name="23rd Street" lane="817013581_0" startPos="294.77" endPos="494.77" friendlyPos="true" lines="6 &lt;6&gt; 4">
        <access lane="456308943#0_0" pos="231.46" length="17.48" friendlyPos="1"/>
        <access lane="456308945#0_0" pos="0.09" length="17.13" friendlyPos="1"/>
        <access lane="46334599#0_0" pos="0.00" length="28.58" friendlyPos="1"/>
        <access lane="464683329#0_0" pos="62.81" length="1.96" friendlyPos="1"/>
        <access lane="464683329#4_0" pos="0.00" length="25.96" friendlyPos="1"/>
    </busStop>
    <busStop id="7633689324" name="23rd Street" lane="817381415_0" startPos="82.96" endPos="282.96" friendlyPos="true" lines="N Q W R">
        <access lane="1298057019#0_0" pos="68.02" length="20.46" friendlyPos="1"/>
        <access lane="34080174#3_0" pos="0.00" length="14.35" friendlyPos="1"/>
        <access lane="34080508#0_0" pos="62.03" length="86.99" friendlyPos="1"/>
        <access lane="456308943#0_0" pos="0.00" length="22.43" friendlyPos="1"/>
        <access lane="5670876#0_0" pos="41.50" length="10.05" friendlyPos="1"/>
    </busStop>
    <busStop id="7633705521" name="23rd Street" lane="817415225_0" startPos="718.38" endPos="918.38" friendlyPos="true" lines="N Q W R">
        <access lane="1081648975#0_0" pos="44.64" length="4.47" friendlyPos="1"/>
        <access lane="1224492208_0" pos="3.32" length="32.12" friendlyPos="1"/>
        <access lane="22898643_0" pos="76.01" length="32.94" friendlyPos="1"/>
        <access lane="895348610#2_0" pos="15.94" length="14.57" friendlyPos="1"/>
        <access lane="895348610#4_0" pos="0.00" length="8.33" friendlyPos="1"/>
    </busStop>
    <busStop id="7656750823" name="14th Street–Union Square" lane="817381426_0" startPos="717.60" endPos="917.60" friendlyPos="true" lines="Q N">
        <access lane="-420522695#3_0" pos="63.98" length="33.23" friendlyPos="1"/>
        <access lane="-666752576#3_0" pos="2.85" length="18.96" friendlyPos="1"/>
        <access lane="420598402#0_0" pos="75.95" length="17.42" friendlyPos="1"/>
        <access lane="421825692#0_0" pos="0.00" length="34.96" friendlyPos="1"/>
        <access lane="666752576#0_0" pos="79.35" length="23.76" friendlyPos="1"/>
    </busStop>
    <busStop id="7656750824" name="14th Street–Union Square" lane="813742876_0" startPos="177.88" endPos="377.88" friendlyPos="true" lines="N Q">
        <access lane="464683323#0_0" pos="82.91" length="84.02" friendlyPos="1"/>
        <access lane="464683327#0_0" pos="51.99" length="135.98" friendlyPos="1"/>
        <access lane="5672713#0_0" pos="174.18" length="53.64" friendlyPos="1"/>
        <access lane="667344132#0_0" pos="0.00" length="53.92" friendlyPos="1"/>
        <access lane="923090985#3_0" pos="0.00" length="139.67" friendlyPos="1"/>
    </busStop>
    <busStop id="7656750825" name="14th Street–Union Square" lane="817415225_0" startPos="178.57" endPos="378.57" friendlyPos="true" lines="N Q W R">
        <access lane="464683323#0_0" pos="77.84" length="79.13" friendlyPos="1"/>
        <access lane="464683327#0_0" pos="48.66" length="125.69" friendlyPos="1"/>
        <access lane="5672713#0_0" pos="174.18" length="64.86" friendlyPos="1"/>
        <access lane="667344132#0_0" pos="0.00" length="65.08" friendlyPos="1"/>
        <access lane="923090985#3_0" pos="0.00" length="130.87" friendlyPos="1"/>
    </busStop>
</additional>
