<?xml version='1.0' encoding='utf-8'?>
<routes><vType id="taxi" vClass="taxi" /><vehicle id="taxi_0" type="taxi" depart="0" line="taxi" insertionCheck="all"><param key="has.taxi.device" value="true" /><route edges="464683316#0" /></vehicle><vehicle id="taxi_1" type="taxi" depart="0" line="taxi" insertionCheck="all"><param key="has.taxi.device" value="true" /><route edges="1316299815#0" /></vehicle><vehicle id="taxi_2" type="taxi" depart="0" line="taxi" insertionCheck="all"><param key="has.taxi.device" value="true" /><route edges="939122872" /></vehicle><vehicle id="taxi_3" type="taxi" depart="0" line="taxi" insertionCheck="all"><param key="has.taxi.device" value="true" /><route edges="1081648975#0" /></vehicle><vehicle id="taxi_4" type="taxi" depart="0" line="taxi" insertionCheck="all"><param key="has.taxi.device" value="true" /><route edges="68668541#4" /></vehicle><vehicle id="taxi_5" type="taxi" depart="0" line="taxi" insertionCheck="all"><param key="has.taxi.device" value="true" /><route edges="-5671774#11" /></vehicle><vehicle id="taxi_6" type="taxi" depart="0" line="taxi" insertionCheck="all"><param key="has.taxi.device" value="true" /><route edges="1080982437" /></vehicle><vehicle id="taxi_7" type="taxi" depart="0" line="taxi" insertionCheck="all"><param key="has.taxi.device" value="true" /><route edges="1027206710#0" /></vehicle><vehicle id="taxi_8" type="taxi" depart="0" line="taxi" insertionCheck="all"><param key="has.taxi.device" value="true" /><route edges="1298057019#0" /></vehicle><vehicle id="taxi_9" type="taxi" depart="0" line="taxi" insertionCheck="all"><param key="has.taxi.device" value="true" /><route edges="-5670924#1" /></vehicle></routes>